 
data_mce-mecn-293k
  
_audit_creation_method            'SHELXL-2019/3' 
_shelx_SHELXL_version_number      '2019/3' 
_chemical_name_systematic         ? 
_chemical_name_common             ? 
_chemical_melting_point           ? 
_chemical_formula_moiety          'C8 H9 N O2, C2 H3 N' 
_chemical_formula_sum 
 'C10 H12 N2 O2' 
_chemical_formula_weight          192.22 
  
loop_ 
 _atom_type_symbol 
 _atom_type_description 
 _atom_type_scat_dispersion_real 
 _atom_type_scat_dispersion_imag 
 _atom_type_scat_source 
 'C'  'C'   0.0181   0.0091 
 'International Tables Vol C Tables 4.2.6.8 and 6.1.1.4' 
 'H'  'H'   0.0000   0.0000 
 'International Tables Vol C Tables 4.2.6.8 and 6.1.1.4' 
 'N'  'N'   0.0311   0.0180 
 'International Tables Vol C Tables 4.2.6.8 and 6.1.1.4' 
 'O'  'O'   0.0492   0.0322 
 'International Tables Vol C Tables 4.2.6.8 and 6.1.1.4' 
  
_space_group_crystal_system       triclinic 
_space_group_IT_number            2 
_space_group_name_H-M_alt         'P -1' 
_space_group_name_Hall            '-P 1' 
  
_shelx_space_group_comment 
; 
The symmetry employed for this shelxl refinement is uniquely defined 
by the following loop, which should always be used as a source of 
symmetry information in preference to the above space-group names. 
They are only intended as comments. 
; 
  
loop_ 
 _space_group_symop_operation_xyz 
 'x, y, z' 
 '-x, -y, -z' 
  
_cell_length_a                    6.6111(6) 
_cell_length_b                    8.1247(5) 
_cell_length_c                    10.0546(4) 
_cell_angle_alpha                 89.986(4) 
_cell_angle_beta                  85.856(5) 
_cell_angle_gamma                 82.196(7) 
_cell_volume                      533.64(6) 
_cell_formula_units_Z             2 
_cell_measurement_temperature     293(2) 
_cell_measurement_reflns_used     11121 
_cell_measurement_theta_min       4.3670 
_cell_measurement_theta_max       73.9320 
  
_exptl_crystal_description        block 
_exptl_crystal_colour             colorless 
_exptl_crystal_density_meas       ? 
_exptl_crystal_density_method     'not measured' 
_exptl_crystal_density_diffrn     1.196 
_exptl_crystal_F_000              204 
_exptl_transmission_factor_min    ? 
_exptl_transmission_factor_max    ? 
_exptl_crystal_size_max           0.430 
_exptl_crystal_size_mid           0.370 
_exptl_crystal_size_min           0.220 
_exptl_absorpt_coefficient_mu     0.697 
_shelx_estimated_absorpt_T_min    0.754 
_shelx_estimated_absorpt_T_max    0.862 
_exptl_absorpt_correction_type    multi-scan 
_exptl_absorpt_correction_T_min   0.12646 
_exptl_absorpt_correction_T_max   1.00000 
_exptl_absorpt_process_details     
; 
The symmetry employed for this shelxl refinement is uniquely defined 
by the following loop, which should always be used as a source of 
symmetry information in preference to the above space-group names. 
They are only intended as comments. 
; 
_exptl_absorpt_special_details    ? 
_diffrn_ambient_temperature       293(2) 
_diffrn_radiation_wavelength      1.54184 
_diffrn_radiation_type            CuK\a 
_diffrn_source                    'micro-focus sealed X-ray tube' 
_diffrn_measurement_device_type   'XtaLAB Synergy, Dualflex, HyPix' 
_diffrn_measurement_method        '\w scans' 
_diffrn_detector_area_resol_mean  10.0000 
_diffrn_reflns_number             25214 
_diffrn_reflns_av_unetI/netI      0.0587 
_diffrn_reflns_av_R_equivalents   0.1419 
_diffrn_reflns_limit_h_min        -7 
_diffrn_reflns_limit_h_max        7 
_diffrn_reflns_limit_k_min        -9 
_diffrn_reflns_limit_k_max        9 
_diffrn_reflns_limit_l_min        -11 
_diffrn_reflns_limit_l_max        11 
_diffrn_reflns_theta_min          4.409 
_diffrn_reflns_theta_max          66.736 
_diffrn_reflns_theta_full         66.736 
_diffrn_measured_fraction_theta_max   0.986 
_diffrn_measured_fraction_theta_full  0.986 
_diffrn_reflns_Laue_measured_fraction_max    0.986 
_diffrn_reflns_Laue_measured_fraction_full   0.986 
_diffrn_reflns_point_group_measured_fraction_max   0.986 
_diffrn_reflns_point_group_measured_fraction_full  0.986 
_reflns_number_total              1862 
_reflns_number_gt                 1333 
_reflns_threshold_expression      'I > 2\s(I)' 
_reflns_Friedel_coverage          0.000 
_reflns_Friedel_fraction_max      . 
_reflns_Friedel_fraction_full     . 
  
_reflns_special_details 
; 
 Reflections were merged by SHELXL according to the crystal 
 class for the calculation of statistics and refinement. 
  
 _reflns_Friedel_fraction is defined as the number of unique 
 Friedel pairs measured divided by the number that would be 
 possible theoretically, ignoring centric projections and 
 systematic absences. 
; 
  
_computing_data_collection        'CrysAlisPro 1.171.43.122a (Rigaku OD, 2024)' 
_computing_cell_refinement        'CrysAlisPro 1.171.43.122a (Rigaku OD, 2024)' 
_computing_data_reduction         'CrysAlisPro 1.171.43.122a (Rigaku OD, 2024)' 
_computing_structure_solution     'SHELXT 2018/2 (Sheldrick, 2018)' 
_computing_structure_refinement 'SHELXL-2019/2 (Sheldrick, 2019)' 
_computing_molecular_graphics    'SHELXLE Revision:1634 (Hubschle, C.B., 2011)' 
_computing_publication_material   'WinGX (Farrugia L.J., 2012)' 
_refine_special_details           
;
All hydrogen atoms were found from difference Fourier and refined freely in the
least squares cycles. Both their positions and temperature factor were refined.
Hydroxyl hydrogen distance was restrained using DFIX card(DFIX 0.98 O2 H2O).

Aromatic hydrogen 1,2-distances were restrained using SADI restraints.
SADI C2 H2 C3 H3 C4 H4 C6 H6 ! AROMATIC C-H DIST

Methyl hydrogens in main moiety and solvent ACN were also restrained using SADI
cards.
SADI C8 H8A C8 H8B C8 H8C C9 H9A C9 H9B C9 H9C ! C-H distance
SADI H8A H8B H8A H8C H8B H8C H9A H9B H9A H9C H9B H9C ! H...H non-bonded
SADI C7 H8A C7 H8B C7 H8C ! 1,3-distances
;
_refine_ls_structure_factor_coef  Fsqd 
_refine_ls_matrix_type            full 
_refine_ls_weighting_scheme       calc 
_refine_ls_weighting_details 
'w=1/[\s^2^(Fo^2^)+(0.1524P)^2^+0.1145P] where P=(Fo^2^+2Fc^2^)/3' 
_atom_sites_solution_primary      dual 
_atom_sites_solution_secondary    difmap 
_atom_sites_solution_hydrogens    difmap 
_refine_ls_hydrogen_treatment     refall 
_refine_ls_extinction_method      none 
_refine_ls_extinction_coef        . 
_refine_ls_number_reflns          1862 
_refine_ls_number_parameters      175 
_refine_ls_number_restraints      40 
_refine_ls_R_factor_all           0.1230 
_refine_ls_R_factor_gt            0.1015 
_refine_ls_wR_factor_ref          0.2545 
_refine_ls_wR_factor_gt           0.2266 
_refine_ls_goodness_of_fit_ref    1.040 
_refine_ls_restrained_S_all       1.029 
_refine_ls_shift/su_max           0.000 
_refine_ls_shift/su_mean          0.000 
  
loop_ 
 _atom_site_label 
 _atom_site_type_symbol 
 _atom_site_fract_x 
 _atom_site_fract_y 
 _atom_site_fract_z 
 _atom_site_U_iso_or_equiv 
 _atom_site_adp_type 
 _atom_site_occupancy 
 _atom_site_site_symmetry_order 
 _atom_site_calc_flag 
 _atom_site_refinement_flags_posn 
 _atom_site_refinement_flags_adp 
 _atom_site_refinement_flags_occupancy 
 _atom_site_disorder_assembly 
 _atom_site_disorder_group 
O1 O 0.3296(3) 0.5044(3) 0.84571(19) 0.0947(8) Uani 1 1 d . . . . . 
O2 O 0.9642(4) 0.2856(3) 1.0247(2) 0.1054(9) Uani 1 1 d D . . . . 
H2O H 0.856(5) 0.371(4) 1.063(4) 0.124(14) Uiso 1 1 d D . . . . 
N1 N 0.4886(5) 0.3443(3) 0.6758(2) 0.0821(8) Uani 1 1 d . . . . . 
H1N H 0.481(5) 0.311(4) 0.602(4) 0.085(9) Uiso 1 1 d . . . . . 
N2 N 0.4423(8) 0.2271(6) 0.3911(3) 0.1396(16) Uani 1 1 d . . . . . 
C1 C 0.6724(5) 0.2756(3) 0.7307(2) 0.0747(8) Uani 1 1 d . . . . . 
C2 C 0.8029(6) 0.1589(4) 0.6537(3) 0.0941(11) Uani 1 1 d D . . . . 
H2 H 0.768(6) 0.125(4) 0.571(3) 0.100(10) Uiso 1 1 d D . . . . 
C3 C 0.9823(7) 0.0882(5) 0.7028(4) 0.1106(13) Uani 1 1 d D . . . . 
H3 H 1.069(6) 0.009(4) 0.652(4) 0.117(12) Uiso 1 1 d D . . . . 
C4 C 1.0355(7) 0.1300(5) 0.8264(4) 0.1035(12) Uani 1 1 d D . . . . 
H4 H 1.156(5) 0.080(5) 0.862(4) 0.123(14) Uiso 1 1 d D . . . . 
C5 C 0.9079(6) 0.2463(4) 0.9025(3) 0.0834(9) Uani 1 1 d . . . . . 
C6 C 0.7259(5) 0.3199(3) 0.8554(3) 0.0733(8) Uani 1 1 d D . . . . 
H6 H 0.641(4) 0.401(3) 0.907(3) 0.075(8) Uiso 1 1 d D . . . . 
C7 C 0.3338(5) 0.4511(4) 0.7312(3) 0.0801(9) Uani 1 1 d D . . . . 
C8 C 0.1606(6) 0.5040(6) 0.6438(3) 0.1002(12) Uani 1 1 d D . . . . 
H8A H 0.200(5) 0.463(5) 0.559(3) 0.158(19) Uiso 1 1 d D . . . . 
H8B H 0.136(6) 0.617(3) 0.643(4) 0.20(3) Uiso 1 1 d D . . . . 
H8C H 0.048(5) 0.459(5) 0.677(4) 0.18(2) Uiso 1 1 d D . . . . 
C9 C 0.4047(7) 0.1626(5) 0.1455(3) 0.0989(12) Uani 1 1 d D . . . . 
H9A H 0.366(7) 0.059(4) 0.146(5) 0.17(2) Uiso 1 1 d D . . . . 
H9B H 0.532(5) 0.163(6) 0.104(6) 0.20(3) Uiso 1 1 d D . . . . 
H9C H 0.310(7) 0.240(6) 0.112(7) 0.24(4) Uiso 1 1 d D . . . . 
C10 C 0.4255(6) 0.1989(4) 0.2833(3) 0.0947(11) Uani 1 1 d . . . . . 
  
loop_ 
 _atom_site_aniso_label 
 _atom_site_aniso_U_11 
 _atom_site_aniso_U_22 
 _atom_site_aniso_U_33 
 _atom_site_aniso_U_23 
 _atom_site_aniso_U_13 
 _atom_site_aniso_U_12 
O1 0.0908(15) 0.1291(18) 0.0589(12) -0.0282(11) -0.0243(10) 0.0143(12) 
O2 0.1015(18) 0.1328(19) 0.0730(14) -0.0162(12) -0.0360(12) 0.0315(14) 
N1 0.103(2) 0.0997(17) 0.0439(12) -0.0184(11) -0.0175(12) -0.0097(14) 
N2 0.203(4) 0.158(3) 0.0701(19) -0.0237(19) -0.031(2) -0.058(3) 
C1 0.098(2) 0.0766(15) 0.0489(14) -0.0091(11) -0.0059(13) -0.0075(14) 
C2 0.125(3) 0.093(2) 0.0602(18) -0.0234(15) -0.0013(18) -0.0019(19) 
C3 0.131(3) 0.103(2) 0.085(2) -0.0280(19) 0.001(2) 0.027(2) 
C4 0.111(3) 0.101(2) 0.087(2) -0.0100(18) -0.012(2) 0.028(2) 
C5 0.095(2) 0.0881(18) 0.0615(16) -0.0065(13) -0.0114(15) 0.0112(15) 
C6 0.086(2) 0.0785(16) 0.0515(14) -0.0110(12) -0.0115(13) 0.0066(14) 
C7 0.092(2) 0.0970(19) 0.0533(15) -0.0093(13) -0.0192(14) -0.0119(17) 
C8 0.104(3) 0.130(3) 0.070(2) 0.0007(19) -0.0362(19) -0.013(2) 
C9 0.115(3) 0.117(3) 0.0649(19) -0.0150(17) -0.024(2) -0.009(2) 
C10 0.117(3) 0.108(2) 0.0626(19) -0.0171(16) -0.0257(18) -0.014(2) 
  
_geom_special_details 
; 
 All esds (except the esd in the dihedral angle between two l.s. planes) 
 are estimated using the full covariance matrix.  The cell esds are taken 
 into account individually in the estimation of esds in distances, angles 
 and torsion angles; correlations between esds in cell parameters are only 
 used when they are defined by crystal symmetry.  An approximate (isotropic) 
 treatment of cell esds is used for estimating esds involving l.s. planes. 
; 
  
loop_ 
 _geom_bond_atom_site_label_1 
 _geom_bond_atom_site_label_2 
 _geom_bond_distance 
 _geom_bond_site_symmetry_2 
 _geom_bond_publ_flag 
O1 C7 1.227(3) . ? 
O2 C5 1.359(4) . ? 
O2 H2O 0.98(2) . ? 
N1 C7 1.337(5) . ? 
N1 C1 1.416(4) . ? 
N1 H1N 0.80(4) . ? 
N2 C10 1.124(4) . ? 
C1 C2 1.387(5) . ? 
C1 C6 1.388(4) . ? 
C2 C3 1.371(6) . ? 
C2 H2 0.93(2) . ? 
C3 C4 1.371(5) . ? 
C3 H3 0.93(2) . ? 
C4 C5 1.371(5) . ? 
C4 H4 0.94(2) . ? 
C5 C6 1.385(5) . ? 
C6 H6 0.94(2) . ? 
C7 C8 1.510(5) . ? 
C8 H8A 0.92(3) . ? 
C8 H8B 0.91(3) . ? 
C8 H8C 0.92(3) . ? 
C9 C10 1.436(4) . ? 
C9 H9A 0.91(3) . ? 
C9 H9B 0.91(3) . ? 
C9 H9C 0.91(3) . ? 
  
loop_ 
 _geom_angle_atom_site_label_1 
 _geom_angle_atom_site_label_2 
 _geom_angle_atom_site_label_3 
 _geom_angle 
 _geom_angle_site_symmetry_1 
 _geom_angle_site_symmetry_3 
 _geom_angle_publ_flag 
C5 O2 H2O 107(3) . . ? 
C7 N1 C1 129.0(2) . . ? 
C7 N1 H1N 119(3) . . ? 
C1 N1 H1N 112(3) . . ? 
C2 C1 C6 119.6(3) . . ? 
C2 C1 N1 117.1(3) . . ? 
C6 C1 N1 123.3(3) . . ? 
C3 C2 C1 119.3(3) . . ? 
C3 C2 H2 120(2) . . ? 
C1 C2 H2 121(2) . . ? 
C2 C3 C4 121.5(3) . . ? 
C2 C3 H3 119(3) . . ? 
C4 C3 H3 119(3) . . ? 
C3 C4 C5 119.5(4) . . ? 
C3 C4 H4 122(3) . . ? 
C5 C4 H4 118(3) . . ? 
O2 C5 C4 118.3(3) . . ? 
O2 C5 C6 121.4(3) . . ? 
C4 C5 C6 120.3(3) . . ? 
C5 C6 C1 119.8(3) . . ? 
C5 C6 H6 119.9(18) . . ? 
C1 C6 H6 120.3(18) . . ? 
O1 C7 N1 123.1(3) . . ? 
O1 C7 C8 121.1(3) . . ? 
N1 C7 C8 115.8(3) . . ? 
C7 C8 H8A 108(2) . . ? 
C7 C8 H8B 109(2) . . ? 
H8A C8 H8B 110(2) . . ? 
C7 C8 H8C 108(2) . . ? 
H8A C8 H8C 110(2) . . ? 
H8B C8 H8C 111(2) . . ? 
C10 C9 H9A 104(4) . . ? 
C10 C9 H9B 105(4) . . ? 
H9A C9 H9B 112(2) . . ? 
C10 C9 H9C 110(5) . . ? 
H9A C9 H9C 113(2) . . ? 
H9B C9 H9C 112(2) . . ? 
N2 C10 C9 179.8(5) . . ? 
  
loop_ 
 _geom_torsion_atom_site_label_1 
 _geom_torsion_atom_site_label_2 
 _geom_torsion_atom_site_label_3 
 _geom_torsion_atom_site_label_4 
 _geom_torsion 
 _geom_torsion_site_symmetry_1 
 _geom_torsion_site_symmetry_2 
 _geom_torsion_site_symmetry_3 
 _geom_torsion_site_symmetry_4 
 _geom_torsion_publ_flag 
C7 N1 C1 C2 176.2(3) . . . . ? 
C7 N1 C1 C6 -4.0(5) . . . . ? 
C6 C1 C2 C3 0.4(5) . . . . ? 
N1 C1 C2 C3 -179.7(3) . . . . ? 
C1 C2 C3 C4 0.2(7) . . . . ? 
C2 C3 C4 C5 -0.7(7) . . . . ? 
C3 C4 C5 O2 -180.0(4) . . . . ? 
C3 C4 C5 C6 0.6(6) . . . . ? 
O2 C5 C6 C1 -179.4(3) . . . . ? 
C4 C5 C6 C1 0.1(5) . . . . ? 
C2 C1 C6 C5 -0.6(5) . . . . ? 
N1 C1 C6 C5 179.6(3) . . . . ? 
C1 N1 C7 O1 -1.6(6) . . . . ? 
C1 N1 C7 C8 178.5(3) . . . . ? 
  
loop_ 
 _geom_hbond_atom_site_label_D 
 _geom_hbond_atom_site_label_H 
 _geom_hbond_atom_site_label_A 
 _geom_hbond_distance_DH 
 _geom_hbond_distance_HA 
 _geom_hbond_distance_DA 
 _geom_hbond_angle_DHA 
 _geom_hbond_site_symmetry_A 
 _geom_hbond_publ_flag 
O2 H2O O1  0.98(2) 1.70(2) 2.668(3) 170(4) 2_667 yes 
N1 H1N N2  0.80(4) 2.27(4) 3.066(4) 176(4) . yes 
  
_refine_diff_density_max    0.179 
_refine_diff_density_min   -0.375 
_refine_diff_density_rms    0.058 
  
_shelx_res_file 
; 
TITL .\exp15v3_293k_auto_a.res in P-1 
    exp15v3_293k_auto_a.res 
    created by SHELXL-2019/3 at 09:51:42 on 18-Nov-2024 
REM Old TITL exp15v3_293k_auto in P1 
REM SHELXT solution in P-1: R1 0.278, Rweak 0.031, Alpha 0.083 
REM <I/s>   0.000 for    0 systematic absences,  Orientation as input 
REM Formula found by SHELXT:  C10 N2 O2 
CELL  1.54184   6.6111   8.1247  10.0546   89.986   85.856   82.196 
ZERR    2.000   0.0006   0.0005   0.0004    0.004    0.005    0.007 
LATT  1 
SFAC C H N O 
UNIT 20 24 4 4 
TEMP 20 
L.S. 10 
SADI C2 H2 C3 H3 C4 H4 C6 H6 ! AROMATIC C-H DIST 
SADI C8 H8A C8 H8B C8 H8C C9 H9A C9 H9B C9 H9C 
SADI H8A H8B H8A H8C H8B H8C H9A H9B H9A H9C H9B H9C 
SADI C7 H8A C7 H8B C7 H8C 
DFIX 0.98 O2 H2O 
SIZE 0.22 0.37 0.43 ! COLORLESS BLOCK XTAL 
SHEL 99 0.839 
BOND $H 
EQIV $1 -x+1, -y+1, -z+2 
HTAB O2 O1_$1 
HTAB N1 N2 
HTAB 
ACTA 
CONF 
LIST 4 
FMAP 2 
PLAN 20 
REM EXTI 0.016140 
WGHT    0.152400    0.114500 
FVAR       0.85740 
O1    4    0.329610    0.504371    0.845713    11.00000    0.09082    0.12906 = 
         0.05891   -0.02816   -0.02430    0.01434 
O2    4    0.964158    0.285613    1.024676    11.00000    0.10152    0.13278 = 
         0.07300   -0.01616   -0.03603    0.03145 
H2O   2    0.856282    0.370873    1.063170    11.00000    0.12418 
N1    3    0.488615    0.344293    0.675800    11.00000    0.10349    0.09972 = 
         0.04387   -0.01841   -0.01748   -0.00969 
H1N   2    0.481326    0.310667    0.602268    11.00000    0.08530 
N2    3    0.442251    0.227149    0.391097    11.00000    0.20302    0.15797 = 
         0.07015   -0.02368   -0.03135   -0.05811 
C1    1    0.672366    0.275650    0.730668    11.00000    0.09751    0.07660 = 
         0.04885   -0.00913   -0.00590   -0.00745 
C2    1    0.802888    0.158890    0.653695    11.00000    0.12487    0.09293 = 
         0.06018   -0.02338   -0.00127   -0.00192 
H2    2    0.767731    0.124595    0.571321    11.00000    0.09991 
C3    1    0.982338    0.088235    0.702754    11.00000    0.13071    0.10266 = 
         0.08514   -0.02804    0.00144    0.02747 
H3    2    1.069259    0.008857    0.651534    11.00000    0.11657 
C4    1    1.035526    0.129996    0.826405    11.00000    0.11090    0.10120 = 
         0.08747   -0.01005   -0.01182    0.02772 
H4    2    1.155626    0.080067    0.862362    11.00000    0.12316 
C5    1    0.907897    0.246295    0.902522    11.00000    0.09498    0.08805 = 
         0.06154   -0.00650   -0.01143    0.01119 
C6    1    0.725867    0.319909    0.855404    11.00000    0.08582    0.07854 = 
         0.05147   -0.01102   -0.01151    0.00660 
H6    2    0.640533    0.400795    0.907123    11.00000    0.07494 
C7    1    0.333753    0.451138    0.731188    11.00000    0.09176    0.09700 = 
         0.05332   -0.00933   -0.01919   -0.01186 
C8    1    0.160555    0.503963    0.643792    11.00000    0.10444    0.12954 = 
         0.07002    0.00071   -0.03616   -0.01276 
H8A   2    0.200450    0.462763    0.558945    11.00000    0.15842 
H8B   2    0.135691    0.617381    0.642900    11.00000    0.20201 
H8C   2    0.047660    0.459336    0.677351    11.00000    0.17601 
C9    1    0.404703    0.162595    0.145533    11.00000    0.11521    0.11728 = 
         0.06492   -0.01496   -0.02387   -0.00938 
H9A   2    0.365642    0.059356    0.146407    11.00000    0.16723 
H9B   2    0.531780    0.163405    0.103960    11.00000    0.20370 
H9C   2    0.310042    0.240471    0.112207    11.00000    0.24284 
C10   1    0.425456    0.198920    0.283295    11.00000    0.11660    0.10751 = 
         0.06257   -0.01711   -0.02570   -0.01404 
HKLF 4 
  
  
  
  
REM  .\exp15v3_293k_auto_a.res in P-1 
REM wR2 = 0.2545, GooF = S = 1.040, Restrained GooF = 1.029 for all data 
REM R1 = 0.1015 for 1333 Fo > 4sig(Fo) and 0.1230 for all 1862 data 
REM 175 parameters refined using 40 restraints 
  
END 
  
WGHT      0.1519      0.1144 
  
REM Instructions for potential hydrogen bonds 
HTAB O2 O1_$1 
HTAB N1 N2 
HTAB C6 O1 
HTAB C6 O1_$1 
EQIV $2 x-1, y, z-1 
HTAB C9 O2_$2 
  
REM Highest difference peak  0.179,  deepest hole -0.375,  1-sigma level  0.058 
Q1    1   0.2763  0.2703  0.7857  11.00000  0.05    0.18 
Q2    1   0.1710  0.3692  0.5850  11.00000  0.05    0.18 
Q3    1   0.7066  0.4077  1.0819  11.00000  0.05    0.17 
Q4    1   0.0517  0.5910  0.7211  11.00000  0.05    0.17 
Q5    1   0.2931  0.3392  0.4903  11.00000  0.05    0.15 
Q6    1   0.5066  0.0151  0.1011  11.00000  0.05    0.13 
Q7    1   0.8568  0.3650  1.0994  11.00000  0.05    0.13 
Q8    1   0.9243  0.4130  1.0789  11.00000  0.05    0.13 
Q9    1   1.2484  0.1630  0.8574  11.00000  0.05    0.12 
Q10   1   1.2289 -0.0057  0.6549  11.00000  0.05    0.12 
Q11   1   0.3891  0.6347  0.8165  11.00000  0.05    0.12 
Q12   1   0.4061  0.1768  0.7263  11.00000  0.05    0.12 
Q13   1   1.0465 -0.0426  0.5191  11.00000  0.05    0.12 
Q14   1   1.0606 -0.1013  0.6716  11.00000  0.05    0.11 
Q15   1   0.2432  0.5530  0.5477  11.00000  0.05    0.11 
Q16   1   1.0439 -0.0128  0.6209  11.00000  0.05    0.11 
Q17   1   0.1866  0.1757  0.1359  11.00000  0.05    0.11 
Q18   1   0.6066  0.0564  0.7050  11.00000  0.05    0.11 
Q19   1   0.2223  0.6601  0.5928  11.00000  0.05    0.11 
Q20   1   0.8932  0.0616  0.5624  11.00000  0.05    0.11 
; 
_shelx_res_checksum   78972 
  
_shelx_hkl_file 
; 
  -8   0  -2    0.01    0.23 
  -8   0  -3    0.07    0.22 
  -8   0  -4    0.09    0.17 
  -8  -1  -1    0.01    0.26 
  -8  -1  -2    0.21    0.26 
  -8  -1  -3   -0.08    0.83 
  -8  -1  -4   -0.08    0.68 
  -8  -1  -5    0.04    0.13 
  -8  -2   0    0.00    0.25 
  -8  -2  -1    0.16    0.25 
  -8  -2  -3    0.17    0.83 
  -8  -2  -3    0.12    0.22 
  -8  -2  -4   -0.20    0.67 
  -8  -2  -4    0.03    0.19 
  -8  -3   1   -0.01    0.12 
  -8  -3   0    0.04    0.13 
  -8  -3  -1    0.01    0.13 
  -8  -3  -2    0.03    0.21 
  -8  -3  -3    0.10    0.67 
  -8  -3  -3   -0.03    0.19 
  -8  -3  -4    0.25    0.56 
  -8  -3  -4   -0.04    0.15 
  -8  -4   1    0.01    0.09 
  -8  -4   0    0.02    0.10 
  -8  -4  -1    0.02    0.10 
  -8  -4  -2    0.01    0.10 
  -7   4  -2   -0.18    0.36 
  -7   4  -3   -0.05    0.31 
  -7   4  -4   -0.06    0.22 
  -7   3  -1   -0.10    0.53 
  -7   3  -4    0.19    0.41 
  -7   3  -5    0.17    0.33 
  -7   2  -1    0.56    0.69 
  -7   2  -1    0.28    0.59 
  -7   2  -2    0.24    0.59 
  -7   2  -4    0.24    0.51 
  -7   2  -5    0.19    0.47 
  -7   2  -6    0.24    0.40 
  -7   1   0    0.15    0.59 
  -7   1  -1    0.39    0.64 
  -7   1  -1    0.49    0.77 
  -7   1  -2    0.56    0.66 
  -7   1  -4    0.48    0.60 
  -7   1  -5    0.03    0.55 
  -7   1  -6    0.59    0.51 
  -7   0   1    0.23    0.39 
  -7   0   0   -0.63    1.55 
  -7   0   0    0.51    0.62 
  -7   0   0    0.01    0.42 
  -7   0  -1    1.47    0.80 
  -7   0  -1    1.22    0.70 
  -7   0  -2    1.53    0.79 
  -7   0  -2    0.93    0.72 
  -7   0  -4    0.67    0.70 
  -7   0  -4    0.17    0.65 
  -7   0  -5    0.70    0.62 
  -7   0  -5    0.38    0.64 
  -7   0  -6    0.40    0.57 
  -7  -1   3    0.05    0.21 
  -7  -1   3    0.01    0.29 
  -7  -1   3    0.01    0.28 
  -7  -1   2    0.04    0.37 
  -7  -1   2    0.03    0.22 
  -7  -1   2    0.13    0.31 
  -7  -1   2    0.15    0.33 
  -7  -1   1    0.22    0.41 
  -7  -1   1    0.26    0.24 
  -7  -1   1    0.47    0.38 
  -7  -1   1    0.31    0.34 
  -7  -1   0    0.07    0.43 
  -7  -1   0   -0.02    0.26 
  -7  -1   0    0.70    1.65 
  -7  -1   0   -0.08    0.34 
  -7  -1   0    0.01    0.35 
  -7  -1  -1    0.05    0.27 
  -7  -1  -1    0.40    0.37 
  -7  -1  -1    0.44    0.38 
  -7  -1  -2    0.66    0.69 
  -7  -1  -3    1.12    0.75 
  -7  -1  -4    1.25    0.74 
  -7  -2   4    0.34    1.02 
  -7  -2   4   -0.03    0.26 
  -7  -2   4    0.51    0.27 
  -7  -2   3    0.39    0.22 
  -7  -2   3    1.39    1.13 
  -7  -2   3    0.35    0.34 
  -7  -2   3    0.19    0.29 
  -7  -2   2    0.15    0.38 
  -7  -2   2   -0.12    0.24 
  -7  -2   2    0.20    0.32 
  -7  -2   2    0.11    0.34 
  -7  -2   1    0.21    0.42 
  -7  -2   1    0.29    0.27 
  -7  -2   1    0.08    0.36 
  -7  -2   1    0.28    0.34 
  -7  -2   0    0.24    0.41 
  -7  -2   0    0.11    0.28 
  -7  -2   0    1.03    1.60 
  -7  -2   0    0.03    0.35 
  -7  -2   0    0.04    0.35 
  -7  -2  -1   -0.01    0.38 
  -7  -2  -1   -0.09    0.37 
  -7  -2  -7    0.04    0.20 
  -7  -3   4    0.52    0.97 
  -7  -3   3    0.13    0.21 
  -7  -3   2   -0.01    0.23 
  -7  -3   1    0.16    0.25 
  -7  -3   0    0.01    0.26 
  -7  -3  -1    0.13    0.38 
  -7  -3  -2 1536.27   24.36 
  -7  -3  -3    0.21    0.35 
  -7  -3  -5    0.04    0.30 
  -7  -3  -6    0.05    0.24 
  -7  -4   4    0.23    0.19 
  -7  -4   3    0.13    0.18 
  -7  -4   3    0.21    0.23 
  -7  -4   3    0.07    0.22 
  -7  -4   2   -0.02    0.19 
  -7  -4   2    0.00    0.28 
  -7  -4   2    0.01    0.26 
  -7  -4   1    0.17    0.22 
  -7  -4   1    0.28    0.30 
  -7  -4   0    0.02    0.34 
  -7  -4   0   -0.09    0.32 
  -7  -4   0   -0.15    0.33 
  -7  -4  -1    0.13    0.34 
  -7  -4  -1    0.52    1.24 
  -7  -4  -1    0.10    0.33 
  -7  -4  -1    0.19    0.34 
  -7  -4  -2    0.24    0.34 
  -7  -4  -3    0.23    0.33 
  -7  -4  -4    0.11    0.29 
  -7  -4  -5   -0.04    0.24 
  -7  -5   4   -0.03    0.52 
  -7  -5   3   -0.01    0.13 
  -7  -5   2   -0.01    0.15 
  -7  -5   2    0.03    0.22 
  -7  -5   2   -0.01    0.22 
  -7  -5   1   -0.01    0.17 
  -7  -5   1   -0.02    0.25 
  -7  -5   1   -0.07    0.25 
  -7  -5   0   -0.04    0.18 
  -7  -5  -1    0.01    0.20 
  -7  -5  -2   -0.01    0.28 
  -7  -5  -3    0.39    0.94 
  -7  -5  -4    0.07    0.86 
  -7  -6   3   -0.17    0.39 
  -7  -6   2   -0.01    0.09 
  -7  -6   1    0.03    0.11 
  -7  -6   0    0.03    0.13 
  -7  -6  -1    0.03    0.13 
  -7  -6  -2    0.00    0.13 
  -7  -6  -3    0.00    0.12 
  -7  -6  -4   -0.01    0.10 
  -6   5   2    1.26    0.48 
  -6   5   1    0.80    0.52 
  -6   5   0    3.16    0.58 
  -6   5  -1    0.93    0.32 
  -6   5  -2    0.11    0.29 
  -6   5  -3   -0.34    0.56 
  -6   5  -4    0.27    0.50 
  -6   4   2    1.18    0.56 
  -6   4   1    0.31    0.60 
  -6   4   0    0.01    0.34 
  -6   4   0    0.42    0.62 
  -6   4  -1    0.55    0.66 
  -6   4  -1    0.08    0.34 
  -6   4  -2    0.16    0.77 
  -6   4  -2    1.11    0.37 
  -6   4  -3   -0.25    0.74 
  -6   4  -3    0.87    0.35 
  -6   4  -4   -0.07    0.66 
  -6   4  -6   -0.04    0.47 
  -6   4  -6    0.21    0.43 
  -6   3   2    0.63    0.54 
  -6   3   2    1.28    0.59 
  -6   3   2    0.90    0.38 
  -6   3   2    1.14    0.38 
  -6   3   1    1.05    0.63 
  -6   3   1    0.31    0.36 
  -6   3   1    0.38    0.36 
  -6   3   0    0.47    0.66 
  -6   3   0   -0.81    0.85 
  -6   3   0    0.13    0.36 
  -6   3  -1   -0.06    0.38 
  -6   3  -1    0.80    0.71 
  -6   3  -1   -0.05    0.83 
  -6   3  -2    0.62    0.41 
  -6   3  -2    0.09    0.81 
  -6   3  -3    0.84    0.85 
  -6   3  -3    2.15    0.44 
  -6   3  -5   -0.02    0.68 
  -6   3  -6    0.02    0.61 
  -6   3  -7   -0.11    0.50 
  -6   3  -7    0.04    0.43 
  -6   2   6    0.40    0.30 
  -6   2   2    1.52    0.38 
  -6   2   2    1.62    0.39 
  -6   2   1    4.58    0.50 
  -6   2   1    4.99    0.52 
  -6   2   0    1.75    0.69 
  -6   2   0    3.40    0.97 
  -6   2  -1   -0.30    0.73 
  -6   2  -1    0.23    0.38 
  -6   2  -1   -0.56    0.90 
  -6   2  -2    3.46    0.96 
  -6   2  -2    4.73    0.53 
  -6   2  -3    3.57    0.97 
  -6   2  -4    1.05    0.85 
  -6   2  -5    0.02    0.73 
  -6   2  -6    0.35    0.72 
  -6   2  -6    0.17    0.73 
  -6   2  -7   -0.14    0.62 
  -6   2  -7   -0.33    0.60 
  -6   1   7    0.11    0.26 
  -6   1   6    1.27    0.37 
  -6   1   5    0.48    0.36 
  -6   1   4    0.23    0.36 
  -6   1   1    1.78    1.61 
  -6   1  -1    0.44    0.95 
  -6   1  -2    2.89    0.97 
  -6   1  -4    0.87    0.85 
  -6   1  -5   -0.02    0.80 
  -6   1  -6   -0.90    0.83 
  -6   1  -6    0.09    0.81 
  -6   1  -7    0.31    0.72 
  -6   1  -8    1.52    0.59 
  -6   0   8    0.70    0.19 
  -6   0   7    0.25    0.29 
  -6   0   6    0.35    0.35 
  -6   0   5   -0.11    0.30 
  -6   0   5   -0.01    0.33 
  -6   0   5    0.19    0.36 
  -6   0   4    0.36    0.38 
  -6   0   4    0.39    0.34 
  -6   0   4    1.71    1.31 
  -6   0   3    0.47    0.38 
  -6   0   3    0.31    0.40 
  -6   0   3    0.03    0.25 
  -6   0   3    2.13    0.40 
  -6   0   3    0.78    1.32 
  -6   0   3    0.10    0.41 
  -6   0   2    0.49    0.28 
  -6   0   2    0.36    0.49 
  -6   0   1    0.76    0.40 
  -6   0   1    0.10    0.28 
  -6   0   1    1.47    0.94 
  -6   0   1    0.58    0.72 
  -6   0   0    1.49    0.49 
  -6   0   0    0.32    0.31 
  -6   0  -1   -0.13    0.40 
  -6   0  -1   -0.16    0.40 
  -6   0  -2   -0.44    0.42 
  -6   0  -2   -0.01    0.40 
  -6   0  -3    1.96    0.99 
  -6   0  -4    0.37    0.93 
  -6   0  -5    1.22    0.95 
  -6   0  -6    1.20    0.93 
  -6   0  -6    0.23    0.92 
  -6   0  -7   -0.06    0.64 
  -6  -1   8    0.73    0.20 
  -6  -1   7    0.74    0.26 
  -6  -1   7    1.41    0.33 
  -6  -1   6   -0.02    0.30 
  -6  -1   6   -0.05    0.31 
  -6  -1   6    0.16    0.34 
  -6  -1   5    0.00    0.34 
  -6  -1   5   -0.14    0.33 
  -6  -1   5    0.24    0.36 
  -6  -1   5    0.53    1.29 
  -6  -1   4    0.32    1.32 
  -6  -1   4    0.43    0.38 
  -6  -1   4    0.15    0.28 
  -6  -1   3    1.86    0.47 
  -6  -1   3    2.19    0.59 
  -6  -1   3    0.54    0.30 
  -6  -1   3    0.35    0.47 
  -6  -1   2    1.85    0.47 
  -6  -1   2    1.98    0.58 
  -6  -1   2    0.29    0.31 
  -6  -1   2    2.85    1.87 
  -6  -1   2    0.45    0.51 
  -6  -1   1    0.24    0.33 
  -6  -1   1    1.24    0.76 
  -6  -1   0    1.29    0.79 
  -6  -1   0    1.33    0.93 
  -6  -1  -1    1.92    0.47 
  -6  -1  -1    1.23    0.47 
  -6  -1  -1    0.65    0.80 
  -6  -1  -2    0.28    0.47 
  -6  -1  -2    0.23    0.45 
  -6  -1  -2    0.42    0.83 
  -6  -1  -4    3.43    1.06 
  -6  -1  -4    0.25    1.09 
  -6  -1  -5    1.32    0.98 
  -6  -1  -5    0.02    0.89 
  -6  -1  -6    2.25    0.96 
  -6  -1  -6    0.05    0.86 
  -6  -1  -7    0.31    0.81 
  -6  -1  -7    0.06    0.67 
  -6  -1  -8   -0.01    0.48 
  -6  -2   8    0.14    0.17 
  -6  -2   7   -0.23    0.23 
  -6  -2   7   -0.03    0.21 
  -6  -2   7    0.11    0.26 
  -6  -2   6   -0.02    0.27 
  -6  -2   6    0.02    0.29 
  -6  -2   6   -0.03    0.32 
  -6  -2   5    0.02    0.35 
  -6  -2   5    0.42    1.27 
  -6  -2   4    0.44    0.37 
  -6  -2   4    0.99    1.43 
  -6  -2   4    0.06    0.25 
  -6  -2   3    0.08    0.41 
  -6  -2   3    0.17    0.38 
  -6  -2   3   -0.06    0.28 
  -6  -2   3    0.59    0.37 
  -6  -2   3    1.39    1.52 
  -6  -2   3   -0.07    0.46 
  -6  -2   2    0.22    0.41 
  -6  -2   2    0.26    0.44 
  -6  -2   2    0.93    0.34 
  -6  -2   2    0.47    1.47 
  -6  -2   2    0.17    0.31 
  -6  -2   2    1.52    1.80 
  -6  -2   2    0.03    0.47 
  -6  -2   1    0.13    0.44 
  -6  -2   1    0.23    0.47 
  -6  -2   1    0.05    0.49 
  -6  -2   0    0.79    0.57 
  -6  -2   0    0.81    0.52 
  -6  -2  -1   -0.03    0.49 
  -6  -2  -1    0.11    0.49 
  -6  -2  -1    0.54    0.78 
  -6  -2  -2    0.08    0.53 
  -6  -2  -2    0.19    0.54 
  -6  -2  -2    0.54    0.82 
  -6  -2  -2    0.43    0.90 
  -6  -2  -3    0.54    0.95 
  -6  -2  -4   13.78    0.88 
  -6  -2  -4   11.11    1.03 
  -6  -2  -5    4.30    0.84 
  -6  -2  -5    4.04    0.79 
  -6  -2  -5    2.70    1.01 
  -6  -2  -6    0.24    0.67 
  -6  -2  -6    0.18    0.64 
  -6  -2  -6    0.09    0.70 
  -6  -2  -7    1.30    0.56 
  -6  -2  -7    0.99    0.56 
  -6  -2  -7    0.09    0.59 
  -6  -2  -8   -0.01    0.47 
  -6  -3   7   -0.06    0.23 
  -6  -3   6    0.18    0.30 
  -6  -3   6   -0.13    0.98 
  -6  -3   5    0.13    0.33 
  -6  -3   5    0.33    1.25 
  -6  -3   5   -0.01    0.21 
  -6  -3   4    0.08    0.25 
  -6  -3   4    0.43    1.38 
  -6  -3   3    0.07    1.51 
  -6  -3   3    0.06    0.44 
  -6  -3   2    1.88    1.62 
  -6  -3   2    0.04    0.46 
  -6  -3   1    0.92    1.74 
  -6  -3   0    0.17    0.46 
  -6  -3  -2   -0.36    1.02 
  -6  -3  -2    0.33    0.56 
  -6  -3  -2    0.55    0.57 
  -6  -3  -3    3.73    0.66 
  -6  -3  -3    2.34    0.62 
  -6  -3  -4    1.62    0.60 
  -6  -3  -7    0.01    0.35 
  -6  -4   7    0.07    0.17 
  -6  -4   6   -0.16    0.23 
  -6  -4   6   -0.08    0.20 
  -6  -4   6    0.74    0.88 
  -6  -4   6   -0.02    0.25 
  -6  -4   5    0.03    0.27 
  -6  -4   5    0.01    0.25 
  -6  -4   5    0.07    0.30 
  -6  -4   5    0.02    1.09 
  -6  -4   4    0.02    0.32 
  -6  -4   4    0.02    0.30 
  -6  -4   4    0.06    1.30 
  -6  -4   4   -0.01    0.22 
  -6  -4   3    0.14    0.35 
  -6  -4   3    0.33    0.37 
  -6  -4   3    0.12    0.25 
  -6  -4   3   -0.17    1.40 
  -6  -4   2    0.63    0.40 
  -6  -4   2    0.41    0.40 
  -6  -4   2    0.01    0.27 
  -6  -4   1    0.17    0.44 
  -6  -4   1    0.26    0.45 
  -6  -4   1    1.12    1.57 
  -6  -4   1    0.21    0.45 
  -6  -4   0    0.21    0.49 
  -6  -4   0    0.39    0.50 
  -6  -4   0    0.07    0.44 
  -6  -4  -1   -0.47    0.52 
  -6  -4  -1    0.01    0.53 
  -6  -4  -1    0.01    0.52 
  -6  -4  -1   -0.01    0.95 
  -6  -4  -1    0.38    0.45 
  -6  -4  -2   -0.09    0.99 
  -6  -4  -2    1.93    0.58 
  -6  -4  -2    0.72    0.56 
  -6  -4  -2    2.97    0.60 
  -6  -4  -2    1.69    0.54 
  -6  -4  -2    0.20    0.43 
  -6  -4  -3    0.11    0.95 
  -6  -4  -3    0.03    0.52 
  -6  -4  -3   -0.14    0.52 
  -6  -4  -3    0.20    0.43 
  -6  -4  -4    1.29    0.50 
  -6  -4  -5    0.54    0.45 
  -6  -4  -5    0.09    0.38 
  -6  -5   6    0.19    0.18 
  -6  -5   6    0.07    0.65 
  -6  -5   5    0.02    0.22 
  -6  -5   5    0.10    0.22 
  -6  -5   5    0.87    0.90 
  -6  -5   4   -0.16    0.28 
  -6  -5   4   -0.14    0.28 
  -6  -5   4    0.77    1.13 
  -6  -5   4   -0.05    0.17 
  -6  -5   3    0.47    0.32 
  -6  -5   3    0.23    0.32 
  -6  -5   3    0.11    1.27 
  -6  -5   3    0.04    0.21 
  -6  -5   2    0.92    0.37 
  -6  -5   2    0.10    0.23 
  -6  -5   1    0.39    0.42 
  -6  -5   1    0.58    0.43 
  -6  -5   1   -0.01    0.25 
  -6  -5   0    0.74    0.46 
  -6  -5   0    0.06    1.34 
  -6  -5   0    0.11    0.39 
  -6  -5  -1    0.06    0.49 
  -6  -5  -1   -0.01    0.42 
  -6  -5  -1    0.20    0.50 
  -6  -5  -1   -0.09    1.39 
  -6  -5  -1    0.33    0.79 
  -6  -5  -1    0.21    0.40 
  -6  -5  -2   -0.27    0.45 
  -6  -5  -2   -0.02    0.81 
  -6  -5  -2    0.13    0.39 
  -6  -5  -3    0.10    0.80 
  -6  -5  -3    0.09    0.60 
  -6  -5  -3    0.26    0.40 
  -6  -5  -4    0.07    0.42 
  -6  -5  -4   -0.07    0.37 
  -6  -5  -4    0.04    0.35 
  -6  -5  -5    4.23    0.44 
  -6  -5  -6    0.06    0.31 
  -6  -5  -6   -0.21    0.32 
  -6  -6   5    0.03    0.15 
  -6  -6   5    0.18    0.59 
  -6  -6   4    0.18    0.81 
  -6  -6   3    0.03    0.15 
  -6  -6   3    0.11    0.98 
  -6  -6   3   -0.04    0.26 
  -6  -6   3   -0.06    0.25 
  -6  -6   2    0.05    0.17 
  -6  -6   2    0.13    0.28 
  -6  -6   2    0.24    0.29 
  -6  -6   1    0.01    0.19 
  -6  -6   1    0.21    0.31 
  -6  -6   1    0.15    0.33 
  -6  -6   0    0.02    0.20 
  -6  -6   0    0.12    0.34 
  -6  -6   0    0.73    0.38 
  -6  -6  -2   -0.31    0.35 
  -6  -6  -3    0.06    0.62 
  -6  -6  -3    0.02    0.35 
  -6  -6  -4    0.28    0.58 
  -6  -6  -4    1.56    0.37 
  -6  -6  -5    0.13    0.27 
  -6  -6  -5   -0.10    0.49 
  -6  -6  -6   -0.09    0.40 
  -6  -7   2   -0.12    0.76 
  -6  -7   1   -0.02    0.12 
  -6  -7   0   -0.07    0.13 
  -6  -7  -1   -0.01    0.14 
  -6  -7  -2    0.01    0.14 
  -6  -8   1   -0.08    0.44 
  -5   7   1    1.09    0.39 
  -5   7   0    0.27    0.39 
  -5   7  -1    1.17    0.25 
  -5   7  -3    0.02    0.16 
  -5   6   4    0.08    0.43 
  -5   6   3    1.56    0.56 
  -5   6   2    4.14    0.73 
  -5   6   1    1.40    0.71 
  -5   6   0    0.11    0.34 
  -5   6   0    0.47    0.64 
  -5   6  -1   -0.09    0.35 
  -5   6  -1    0.08    0.65 
  -5   6  -2    0.33    0.62 
  -5   6  -3   -0.08    0.70 
  -5   6  -3    0.45    0.32 
  -5   6  -4    0.22    0.61 
  -5   6  -4    0.38    0.28 
  -5   6  -5    0.05    0.21 
  -5   6  -6    0.08    0.37 
  -5   5   6    0.29    0.38 
  -5   5   5    0.43    0.53 
  -5   5   4    0.58    0.36 
  -5   5   4    0.41    0.35 
  -5   5   4    1.64    0.64 
  -5   5   4    1.91    0.64 
  -5   5   3    2.52    0.47 
  -5   5   3    2.24    0.45 
  -5   5   3    2.69    0.76 
  -5   5   3    4.81    0.76 
  -5   5   3    4.73    0.76 
  -5   5   2    0.55    0.41 
  -5   5   2    0.80    0.75 
  -5   5   2    1.47    0.72 
  -5   5   2    1.36    0.76 
  -5   5   1    1.85    0.79 
  -5   5   1    2.10    0.76 
  -5   5   1    0.76    0.40 
  -5   5   1    1.48    0.82 
  -5   5   1    0.58    0.61 
  -5   5   0    0.93    0.83 
  -5   5   0    0.38    0.41 
  -5   5   0    0.20    0.63 
  -5   5  -1   -0.14    0.84 
  -5   5  -1    0.22    0.42 
  -5   5  -1   -0.11    0.64 
  -5   5  -2    0.19    0.79 
  -5   5  -3    0.60    0.40 
  -5   5  -4    0.85    0.38 
  -5   5  -5    0.78    0.33 
  -5   5  -6    0.06    0.59 
  -5   5  -7    0.04    0.46 
  -5   4   6    0.55    0.56 
  -5   4   6    3.18    0.53 
  -5   4   5    0.18    0.37 
  -5   4   5    0.21    0.37 
  -5   4   5    0.29    0.63 
  -5   4   4    0.19    0.41 
  -5   4   4   -0.26    0.40 
  -5   4   4   -0.26    0.65 
  -5   4   4    0.63    0.68 
  -5   4   3    0.45    0.44 
  -5   4   3    0.56    0.45 
  -5   4   3    0.65    0.71 
  -5   4   3    0.14    0.71 
  -5   4   3    0.12    0.69 
  -5   4   2    0.65    0.46 
  -5   4   2    0.50    0.44 
  -5   4   2    1.11    0.79 
  -5   4   2    0.51    0.35 
  -5   4   2    0.67    0.73 
  -5   4   2    2.08    0.76 
  -5   4   1    0.42    0.47 
  -5   4   1    0.35    0.47 
  -5   4   1    2.23    0.82 
  -5   4   1    1.86    0.86 
  -5   4   1    0.78    0.63 
  -5   4   1    2.42    0.79 
  -5   4   1    1.26    0.43 
  -5   4   0    9.56    0.81 
  -5   4   0   10.06    0.84 
  -5   4   0   12.17    1.05 
  -5   4   0    9.69    0.91 
  -5   4   0   15.03    1.05 
  -5   4   0    5.78    1.21 
  -5   4   0   13.67    1.11 
  -5   4   0   10.25    0.69 
  -5   4  -1    9.61    0.90 
  -5   4  -1   11.60    0.72 
  -5   4  -2   -0.02    0.75 
  -5   4  -3    1.77    1.00 
  -5   4  -3    4.00    0.53 
  -5   4  -4    0.79    0.93 
  -5   4  -4    5.33    0.55 
  -5   4  -5   -0.53    0.87 
  -5   4  -5    1.59    0.43 
  -5   4  -6    0.28    0.80 
  -5   4  -6   -0.13    0.35 
  -5   4  -7   -0.11    0.69 
  -5   4  -7   -0.39    0.62 
  -5   4  -8    0.08    0.47 
  -5   3   8    1.13    0.34 
  -5   3   7    1.32    0.51 
  -5   3   7    1.27    0.39 
  -5   3   6    0.43    0.37 
  -5   3   6    0.19    0.37 
  -5   3   6   -0.19    0.60 
  -5   3   6    1.18    0.57 
  -5   3   6    0.84    0.41 
  -5   3   5    2.13    0.48 
  -5   3   5    2.58    0.48 
  -5   3   5    3.61    0.52 
  -5   3   5    2.51    0.64 
  -5   3   4    0.38    0.42 
  -5   3   4    0.60    0.40 
  -5   3   4   -0.04    0.66 
  -5   3   4    0.04    0.41 
  -5   3   4    0.44    0.60 
  -5   3   4   -0.18    0.63 
  -5   3   3    1.31    0.45 
  -5   3   3    0.87    0.44 
  -5   3   3   -0.04    0.65 
  -5   3   3    0.83    0.43 
  -5   3   3    0.03    0.67 
  -5   3   3    0.63    0.69 
  -5   3   3    0.70    0.60 
  -5   3   2   22.60    1.09 
  -5   3   2   24.31    1.14 
  -5   3   2   25.56    1.26 
  -5   3   2   24.63    1.21 
  -5   3   2   24.65    1.01 
  -5   3   2   23.77    0.87 
  -5   3   2   23.72    1.25 
  -5   3   1    8.00    0.75 
  -5   3   1    8.95    0.75 
  -5   3   1    5.50    0.75 
  -5   3   1    8.90    0.93 
  -5   3   1    8.59    0.60 
  -5   3   1   10.57    0.95 
  -5   3   1    9.17    0.96 
  -5   3   1    4.63    0.96 
  -5   3   0    3.05    0.64 
  -5   3   0    2.66    0.63 
  -5   3   0    3.30    0.87 
  -5   3   0    3.25    0.90 
  -5   3   0    1.76    0.99 
  -5   3   0    3.95    0.51 
  -5   3   0    1.43    0.67 
  -5   3   0    4.25    0.86 
  -5   3  -1    8.06    0.83 
  -5   3  -1    9.04    0.84 
  -5   3  -1    8.64    0.63 
  -5   3  -1    6.80    1.01 
  -5   3  -1    6.83    1.00 
  -5   3  -2    1.58    0.97 
  -5   3  -3    2.97    0.51 
  -5   3  -3    0.09    0.91 
  -5   3  -4    1.60    0.49 
  -5   3  -4    0.06    0.94 
  -5   3  -5    5.35    0.57 
  -5   3  -5    0.12    0.95 
  -5   3  -6   -0.39    0.89 
  -5   3  -6    0.48    0.72 
  -5   3  -6    0.17    0.67 
  -5   3  -7   -0.51    0.75 
  -5   3  -7   -0.34    0.61 
  -5   3  -7   -0.40    0.56 
  -5   3  -8    0.49    0.65 
  -5   2   8    0.85    0.44 
  -5   2   7    2.85    0.48 
  -5   2   7    0.68    0.56 
  -5   2   6    0.64    0.38 
  -5   2   6    0.20    0.36 
  -5   2   6   -0.08    0.56 
  -5   2   6    0.50    0.44 
  -5   2   6    0.34    0.61 
  -5   2   5    0.76    0.43 
  -5   2   5    1.03    0.42 
  -5   2   5    0.28    0.59 
  -5   2   5    0.64    0.61 
  -5   2   5    1.36    0.47 
  -5   2   4    1.29    0.44 
  -5   2   4    0.92    0.44 
  -5   2   4    0.18    0.57 
  -5   2   4   -0.51    0.62 
  -5   2   4    1.25    0.46 
  -5   2   4   -0.12    0.57 
  -5   2   3    4.26    0.55 
  -5   2   3    3.96    0.56 
  -5   2   3    0.83    0.56 
  -5   2   3    0.42    0.65 
  -5   2   3    5.17    0.55 
  -5   2   3    1.54    0.64 
  -5   2   2    3.05    0.51 
  -5   2   2    3.26    0.51 
  -5   2   2    0.37    0.65 
  -5   2   2    2.14    0.68 
  -5   2   2    1.02    0.66 
  -5   2   2    3.38    0.46 
  -5   2   2    2.10    0.37 
  -5   2   2    1.24    0.56 
  -5   2   1   35.67    1.29 
  -5   2   1   35.63    1.27 
  -5   2   1   16.16    1.37 
  -5   2   1   13.45    1.05 
  -5   2   1   36.55    1.02 
  -5   2   1   22.27    1.19 
  -5   2   1   26.83    1.29 
  -5   2   0    3.64    0.68 
  -5   2   0    4.01    0.66 
  -5   2   0    3.38    0.85 
  -5   2   0    1.75    0.99 
  -5   2   0    4.55    0.51 
  -5   2   0    2.72    0.79 
  -5   2   0    2.71    0.84 
  -5   2  -1   17.42    1.05 
  -5   2  -1   16.38    1.03 
  -5   2  -1    7.09    1.15 
  -5   2  -1    6.59    0.99 
  -5   2  -1   16.61    0.76 
  -5   2  -2   -0.56    0.98 
  -5   2  -3   -0.10    1.08 
  -5   2  -3   -0.06    0.42 
  -5   2  -3    0.23    0.89 
  -5   2  -4    9.06    0.94 
  -5   2  -4   10.17    0.90 
  -5   2  -4    8.80    0.68 
  -5   2  -5   -0.28    0.72 
  -5   2  -5   -0.78    0.81 
  -5   2  -5   -0.32    0.47 
  -5   2  -5    0.15    0.96 
  -5   2  -6    4.09    0.77 
  -5   2  -6    3.03    0.79 
  -5   2  -6    2.47    0.98 
  -5   2  -7    1.09    0.76 
  -5   2  -7    0.22    0.74 
  -5   2  -7    3.14    1.00 
  -5   2  -7    1.85    0.95 
  -5   2  -8   -0.50    0.77 
  -5   1   9    2.41    0.29 
  -5   1   8    0.08    0.47 
  -5   1   7    0.02    0.54 
  -5   1   7    2.60    0.50 
  -5   1   6    3.58    0.41 
  -5   1   6    2.55    0.40 
  -5   1   5   -0.03    0.33 
  -5   1   5    0.13    0.34 
  -5   1   5    0.11    0.49 
  -5   1   5    0.60    0.42 
  -5   1   4   -0.17    0.33 
  -5   1   4    0.08    0.34 
  -5   1   4   -0.92    0.57 
  -5   1   4    0.24    0.50 
  -5   1   4    0.47    0.39 
  -5   1   3    1.19    0.40 
  -5   1   3    1.64    0.43 
  -5   1   3    0.81    0.34 
  -5   1   3    1.07    0.36 
  -5   1   3    1.06    1.29 
  -5   1   3   -0.48    0.52 
  -5   1   3    0.11    0.24 
  -5   1   3    1.83    0.41 
  -5   1   2   53.84    1.35 
  -5   1   2   54.61    1.37 
  -5   1   2   72.95    1.00 
  -5   1   2   63.27    0.92 
  -5   1   2   65.21    2.36 
  -5   1   2   37.33    2.35 
  -5   1   2   86.38    1.39 
  -5   1   1   45.55    1.38 
  -5   1   1   46.06    1.40 
  -5   1   1   49.07    0.97 
  -5   1   1   59.37    1.04 
  -5   1   1    9.59    1.04 
  -5   1   1   43.17    1.14 
  -5   1   1   15.07    1.39 
  -5   1   0   16.10    0.89 
  -5   1   0   15.48    0.89 
  -5   1   0   18.07    0.58 
  -5   1   0   14.33    0.54 
  -5   1   0    3.19    0.77 
  -5   1   0   15.97    0.71 
  -5   1   0    5.99    1.03 
  -5   1  -1   15.69    0.95 
  -5   1  -1   16.41    0.96 
  -5   1  -1    7.73    1.06 
  -5   1  -1    2.53    0.85 
  -5   1  -1   16.19    0.73 
  -5   1  -1   17.60    0.59 
  -5   1  -1   10.94    0.52 
  -5   1  -2    1.20    0.89 
  -5   1  -2    2.92    0.94 
  -5   1  -2    2.54    0.42 
  -5   1  -3    1.11    0.96 
  -5   1  -3    0.60    0.41 
  -5   1  -3    0.29    0.85 
  -5   1  -4    3.98    1.18 
  -5   1  -4    2.72    0.69 
  -5   1  -4    2.55    0.66 
  -5   1  -4    1.84    0.51 
  -5   1  -4    0.87    0.90 
  -5   1  -5   32.47    1.31 
  -5   1  -5   32.32    1.29 
  -5   1  -6    3.59    0.73 
  -5   1  -6    3.08    0.78 
  -5   1  -7    4.36    0.96 
  -5   1  -7    2.81    0.70 
  -5   1  -7    2.34    0.65 
  -5   1  -7    1.24    0.98 
  -5   1  -7    0.88    1.05 
  -5   1  -8    0.04    0.87 
  -5   1  -8    2.07    0.74 
  -5   1  -9    0.94    0.55 
  -5   0   9    0.40    0.26 
  -5   0   8   -0.04    0.36 
  -5   0   8   -0.04    0.30 
  -5   0   8    0.02    0.30 
  -5   0   7    0.12    0.36 
  -5   0   7    0.16    0.38 
  -5   0   6    0.29    0.43 
  -5   0   6    0.01    0.38 
  -5   0   6    0.05    0.39 
  -5   0   5    0.41    1.40 
  -5   0   5    0.11    0.40 
  -5   0   5    0.06    0.37 
  -5   0   5    0.05    0.36 
  -5   0   4   -0.23    0.38 
  -5   0   4    0.27    1.37 
  -5   0   4    0.05    0.27 
  -5   0   4   -0.12    0.37 
  -5   0   4    0.08    0.37 
  -5   0   3    4.02    0.47 
  -5   0   3    0.09    0.28 
  -5   0   3    2.95    0.42 
  -5   0   3    3.31    0.43 
  -5   0   3    0.13    0.46 
  -5   0   2   -0.07    0.79 
  -5   0   2    0.29    1.77 
  -5   0   2    1.01    0.36 
  -5   0   2    0.16    0.28 
  -5   0   2    1.48    0.41 
  -5   0   2    1.72    0.41 
  -5   0   1    3.00    0.39 
  -5   0   1    3.15    0.41 
  -5   0   0    2.08    0.39 
  -5   0   0    2.03    0.39 
  -5   0  -1    1.57    0.74 
  -5   0  -1    7.43    1.00 
  -5   0  -1   25.30    0.73 
  -5   0  -1   23.67    0.72 
  -5   0  -2    1.46    0.45 
  -5   0  -2    1.93    0.43 
  -5   0  -2    1.42    0.82 
  -5   0  -3    1.30    0.86 
  -5   0  -3    3.47    0.93 
  -5   0  -3    1.84    0.49 
  -5   0  -3    3.78    0.97 
  -5   0  -3    2.90    1.07 
  -5   0  -4    2.82    0.95 
  -5   0  -4    6.47    1.09 
  -5   0  -4    5.39    1.10 
  -5   0  -4    6.54    1.25 
  -5   0  -5   45.08    1.87 
  -5   0  -5   42.07    1.87 
  -5   0  -5   46.42    2.10 
  -5   0  -6    6.90    1.21 
  -5   0  -6    6.33    1.34 
  -5   0  -6   14.40    1.29 
  -5   0  -6   14.13    1.25 
  -5   0  -7    1.30    1.11 
  -5   0  -7    0.62    1.04 
  -5   0  -9    1.84    0.59 
  -5   0  -9    1.83    0.57 
  -5   0  -9    2.24    0.63 
  -5   0 -10    2.48    0.45 
  -5  -1   9    0.11    0.25 
  -5  -1   8    0.40    0.34 
  -5  -1   8   -0.14    0.30 
  -5  -1   8    0.03    0.31 
  -5  -1   7   -0.05    0.36 
  -5  -1   7   -0.07    0.37 
  -5  -1   6    0.17    0.41 
  -5  -1   6   -0.01    0.39 
  -5  -1   6   -0.02    0.38 
  -5  -1   5    0.01    0.27 
  -5  -1   5    0.34    0.42 
  -5  -1   5    0.13    0.40 
  -5  -1   5   -0.01    0.40 
  -5  -1   4    0.04    0.28 
  -5  -1   4    2.02    1.54 
  -5  -1   4    1.70    0.44 
  -5  -1   4    1.54    0.41 
  -5  -1   4    1.20    0.41 
  -5  -1   4   -0.22    0.45 
  -5  -1   3   -0.03    0.29 
  -5  -1   3    0.27    1.43 
  -5  -1   3    0.24    0.39 
  -5  -1   3    0.10    0.37 
  -5  -1   3    0.09    0.45 
  -5  -1   2   -0.20    0.30 
  -5  -1   2    0.07    0.41 
  -5  -1   2    0.07    0.42 
  -5  -1   1    0.92    0.79 
  -5  -1   1    1.11    0.68 
  -5  -1   1   14.03    0.60 
  -5  -1   1   10.47    0.53 
  -5  -1   0   20.97    0.74 
  -5  -1   0   17.32    0.68 
  -5  -1  -1    7.38    0.55 
  -5  -1  -1    7.73    0.55 
  -5  -1  -2    0.32    0.75 
  -5  -1  -2    0.46    0.54 
  -5  -1  -2   -0.43    0.85 
  -5  -1  -2    0.88    0.49 
  -5  -1  -2    0.88    0.69 
  -5  -1  -2    0.24    0.69 
  -5  -1  -2    0.73    0.47 
  -5  -1  -3    1.10    0.85 
  -5  -1  -3    1.79    0.56 
  -5  -1  -3    1.74    0.89 
  -5  -1  -3    2.07    0.57 
  -5  -1  -3    1.87    0.85 
  -5  -1  -3    1.54    0.99 
  -5  -1  -4    5.67    1.14 
  -5  -1  -4    4.68    1.06 
  -5  -1  -4   13.50    1.26 
  -5  -1  -4   13.94    1.22 
  -5  -1  -4   12.80    1.39 
  -5  -1  -5   10.83    1.36 
  -5  -1  -5    0.30    0.81 
  -5  -1  -5   10.62    1.22 
  -5  -1  -5    9.93    1.16 
  -5  -1  -5    3.54    1.16 
  -5  -1  -5    6.16    1.28 
  -5  -1  -6   23.64    2.03 
  -5  -1  -6   28.91    1.65 
  -5  -1  -6   25.04    2.11 
  -5  -1  -6   25.41    1.40 
  -5  -1  -6   27.43    1.49 
  -5  -1  -7    6.87    0.63 
  -5  -1  -7    6.37    0.96 
  -5  -1  -7    7.81    0.97 
  -5  -1  -7    8.20    1.39 
  -5  -1  -7    7.57    1.32 
  -5  -1 -10    0.13    0.57 
  -5  -2   9    1.29    0.26 
  -5  -2   8    0.22    0.33 
  -5  -2   6   -0.10    1.36 
  -5  -2   6    0.67    0.43 
  -5  -2   6    1.55    1.38 
  -5  -2   5    0.42    1.51 
  -5  -2   4   -0.14    0.47 
  -5  -2   4    1.72    1.60 
  -5  -2   3    0.09    0.47 
  -5  -2   3   -0.27    1.78 
  -5  -2   2    0.39    0.48 
  -5  -2   1    0.39    0.63 
  -5  -2   0   -0.19    0.88 
  -5  -2   0    0.25    0.78 
  -5  -2   0    0.45    0.68 
  -5  -2   0    1.19    0.53 
  -5  -2  -1    0.27    0.72 
  -5  -2  -1   -0.02    1.01 
  -5  -2  -1    2.20    0.59 
  -5  -2  -1    2.94    0.60 
  -5  -2  -2    1.66    0.58 
  -5  -2  -2    0.97    0.56 
  -5  -2  -3    4.50    1.00 
  -5  -2  -3    1.53    0.94 
  -5  -2  -3    4.66    0.91 
  -5  -2  -3    3.81    0.86 
  -5  -2  -3    4.91    0.67 
  -5  -2  -4    0.76    0.99 
  -5  -2  -4    0.68    0.97 
  -5  -2  -4    0.97    0.92 
  -5  -2  -4   -0.08    0.59 
  -5  -2  -4    0.30    0.86 
  -5  -2  -5    8.20    1.20 
  -5  -2  -5    2.76    1.18 
  -5  -2  -5    9.87    1.52 
  -5  -2  -5    7.57    1.46 
  -5  -2  -5    8.29    1.05 
  -5  -2  -5    0.79    0.78 
  -5  -2  -5    6.95    0.99 
  -5  -2  -6    0.07    0.62 
  -5  -2  -6    0.07    1.02 
  -5  -2  -6    2.92    1.15 
  -5  -2  -6    2.75    1.13 
  -5  -2  -6    2.84    1.16 
  -5  -2  -6    2.81    0.86 
  -5  -2  -6    2.87    0.84 
  -5  -2  -6    3.13    0.60 
  -5  -2  -7    9.42    0.68 
  -5  -2  -7    7.88    1.25 
  -5  -2  -7    6.95    1.20 
  -5  -2  -7    8.18    0.95 
  -5  -2  -7    8.72    0.94 
  -5  -2  -8    6.93    0.57 
  -5  -2  -8    6.52    0.81 
  -5  -2  -8    5.09    0.75 
  -5  -2  -8    6.49    1.03 
  -5  -2  -8    6.34    1.03 
  -5  -3   9    1.05    0.20 
  -5  -3   8    0.01    0.23 
  -5  -3   8    0.02    0.24 
  -5  -3   8   -0.08    0.28 
  -5  -3   7    0.16    0.30 
  -5  -3   7    1.03    0.31 
  -5  -3   7   -0.25    1.10 
  -5  -3   6    2.79    0.39 
  -5  -3   6    0.95    0.36 
  -5  -3   6    3.86    1.41 
  -5  -3   5    0.15    0.39 
  -5  -3   5    0.17    0.38 
  -5  -3   5    0.30    1.46 
  -5  -3   5   -0.05    0.27 
  -5  -3   4    0.32    0.42 
  -5  -3   4    0.54    0.43 
  -5  -3   4    0.01    0.29 
  -5  -3   4    0.61    1.62 
  -5  -3   3    0.37    0.43 
  -5  -3   3    0.04    0.43 
  -5  -3   3    0.04    0.31 
  -5  -3   3    0.04    0.47 
  -5  -3   2    0.41    0.48 
  -5  -3   2    0.28    0.50 
  -5  -3   2    0.61    1.72 
  -5  -3   1   20.23    0.64 
  -5  -3   1   20.14    0.65 
  -5  -3   0    6.06    0.44 
  -5  -3   0    5.12    0.60 
  -5  -3   0    6.11    0.46 
  -5  -3   0    7.18    0.65 
  -5  -3   0    5.17    0.68 
  -5  -3  -1   17.09    0.89 
  -5  -3  -1   17.40    0.63 
  -5  -3  -1   17.05    0.61 
  -5  -3  -1   15.16    0.92 
  -5  -3  -2    1.87    0.77 
  -5  -3  -2    2.16    0.65 
  -5  -3  -2    0.58    0.63 
  -5  -3  -2    2.16    0.60 
  -5  -3  -2    2.21    0.60 
  -5  -3  -3    0.51    0.92 
  -5  -3  -3    0.49    0.52 
  -5  -3  -3    0.42    0.32 
  -5  -3  -3    0.07    0.35 
  -5  -3  -3    0.76    0.69 
  -5  -3  -3    0.81    0.68 
  -5  -3  -3    0.37    0.72 
  -5  -3  -4   28.35    1.46 
  -5  -3  -4   41.34    1.20 
  -5  -3  -4   35.94    1.81 
  -5  -3  -4   25.49    1.30 
  -5  -3  -4   24.65    1.31 
  -5  -3  -5    0.94    0.87 
  -5  -3  -5    0.82    0.87 
  -5  -3  -5    0.26    0.87 
  -5  -3  -5    0.25    0.71 
  -5  -3  -5    0.69    0.75 
  -5  -3  -5    0.06    8.37 
  -5  -3  -6    0.47    0.91 
  -5  -3  -6    0.45    1.16 
  -5  -3  -6   15.51    1.43 
  -5  -3  -6   15.62    1.03 
  -5  -3  -6   15.81    1.01 
  -5  -3  -6    0.86    0.91 
  -5  -3  -6   15.78    1.41 
  -5  -3  -7    0.70    0.46 
  -5  -3  -7   -0.41    0.64 
  -5  -3  -7   -0.17    0.49 
  -5  -3  -7    0.27    0.67 
  -5  -3  -7   -0.64    0.79 
  -5  -3  -7   -0.46    0.77 
  -5  -3  -7    0.10    0.74 
  -5  -3  -8    5.73    0.53 
  -5  -3  -8    4.02    0.67 
  -5  -3  -8    4.32    0.70 
  -5  -3  -9    0.03    0.55 
  -5  -3  -9    1.20    0.52 
  -5  -3  -9    1.22    0.52 
  -5  -3  -9    1.29    0.37 
  -5  -4   8    0.73    0.25 
  -5  -4   7    0.35    0.27 
  -5  -4   7    0.15    0.26 
  -5  -4   7    0.38    0.99 
  -5  -4   6    1.35    0.34 
  -5  -4   6    3.20    0.38 
  -5  -4   5    0.50    0.36 
  -5  -4   5    1.28    0.38 
  -5  -4   5    0.17    0.24 
  -5  -4   5    1.54    1.44 
  -5  -4   4    0.66    0.40 
  -5  -4   4    0.78    0.42 
  -5  -4   4   -0.02    0.26 
  -5  -4   4    0.42    1.55 
  -5  -4   3    1.85    0.39 
  -5  -4   3    0.99    0.46 
  -5  -4   2    0.23    0.30 
  -5  -4   2    0.12    0.31 
  -5  -4   2    0.61    0.37 
  -5  -4   2    1.05    0.48 
  -5  -4   2    0.92    0.49 
  -5  -4   2    0.16    0.46 
  -5  -4   1    1.38    0.35 
  -5  -4   1    1.50    0.36 
  -5  -4   1    1.78    0.39 
  -5  -4   1    1.18    0.52 
  -5  -4   1    2.30    0.55 
  -5  -4   0    0.31    1.09 
  -5  -4   0    0.36    0.51 
  -5  -4   0    0.11    0.57 
  -5  -4   0    0.70    0.59 
  -5  -4   0    1.10    0.36 
  -5  -4   0    0.71    0.33 
  -5  -4   0    0.05    0.47 
  -5  -4  -1    4.95    0.87 
  -5  -4  -1    5.34    0.67 
  -5  -4  -1    2.30    0.67 
  -5  -4  -1    7.86    0.75 
  -5  -4  -1    5.50    0.63 
  -5  -4  -1    6.12    0.43 
  -5  -4  -1    6.69    0.45 
  -5  -4  -1    0.37    0.48 
  -5  -4  -2    5.30    0.88 
  -5  -4  -2    6.92    0.63 
  -5  -4  -2    8.10    0.76 
  -5  -4  -2    6.37    0.66 
  -5  -4  -3   -0.19    0.64 
  -5  -4  -3    0.10    0.32 
  -5  -4  -3    0.40    0.48 
  -5  -4  -3    0.04    0.34 
  -5  -4  -3    0.51    0.67 
  -5  -4  -3    0.70    0.67 
  -5  -4  -3    0.01    0.49 
  -5  -4  -4    1.11    0.36 
  -5  -4  -4    0.45    0.51 
  -5  -4  -5   14.80    0.91 
  -5  -4  -5   14.80    0.93 
  -5  -4  -5   15.83    1.01 
  -5  -4  -6   -0.21    0.57 
  -5  -4  -6    0.27    0.56 
  -5  -4  -6   -0.13    0.46 
  -5  -4  -6    0.05    0.60 
  -5  -4  -6    0.03    0.67 
  -5  -4  -7    0.01    0.63 
  -5  -4  -7    2.80    0.47 
  -5  -4  -7    1.41    0.57 
  -5  -4  -7    1.26    0.56 
  -5  -4  -7    1.60    0.49 
  -5  -4  -8   -0.01    0.53 
  -5  -4  -8   -0.30    0.49 
  -5  -4  -8   -0.38    0.48 
  -5  -4  -8    0.40    0.37 
  -5  -5   8    0.12    0.15 
  -5  -5   6    0.00    0.27 
  -5  -5   6    0.26    0.26 
  -5  -5   6    0.13    0.96 
  -5  -5   5    0.88    0.32 
  -5  -5   5    0.14    0.21 
  -5  -5   4    0.46    0.36 
  -5  -5   4   -0.01    0.22 
  -5  -5   3    0.60    0.34 
  -5  -5   3    0.75    0.41 
  -5  -5   3    1.13    0.44 
  -5  -5   3    0.18    0.25 
  -5  -5   2    2.50    0.34 
  -5  -5   2    2.28    0.33 
  -5  -5   2    0.14    0.29 
  -5  -5   2    2.40    0.39 
  -5  -5   2    1.11    0.47 
  -5  -5   2    3.28    0.51 
  -5  -5   1    0.01    0.33 
  -5  -5   1    0.03    0.30 
  -5  -5   1    0.17    0.45 
  -5  -5   1    0.22    0.36 
  -5  -5   1    0.46    0.51 
  -5  -5   1   -0.01    0.48 
  -5  -5   0    0.59    1.55 
  -5  -5   0    0.35    0.46 
  -5  -5   0    3.06    0.53 
  -5  -5   0    0.66    0.56 
  -5  -5   0    4.34    0.62 
  -5  -5   0    3.52    0.38 
  -5  -5   0    3.36    0.36 
  -5  -5  -1   -0.07    0.53 
  -5  -5  -1    0.23    0.39 
  -5  -5  -1    0.34    0.30 
  -5  -5  -1    0.19    0.33 
  -5  -5  -1    0.09    0.43 
  -5  -5  -1    0.13    0.35 
  -5  -5  -1   -0.03    0.58 
  -5  -5  -1    0.20    0.46 
  -5  -5  -1   -0.05    0.57 
  -5  -5  -2    0.47    0.58 
  -5  -5  -2    0.55    0.44 
  -5  -5  -2    0.14    0.45 
  -5  -5  -2    0.45    0.60 
  -5  -5  -2    0.60    0.62 
  -5  -5  -2    0.50    0.47 
  -5  -5  -2    0.22    0.36 
  -5  -5  -3    0.08    0.34 
  -5  -5  -3    0.75    0.31 
  -5  -5  -3    0.08    0.45 
  -5  -5  -3   -0.14    0.43 
  -5  -5  -3    0.94    0.47 
  -5  -5  -3    0.12    0.57 
  -5  -5  -3   -0.02    0.54 
  -5  -5  -4    0.74    0.32 
  -5  -5  -4    0.11    0.34 
  -5  -5  -4    0.37    0.44 
  -5  -5  -4    0.36    0.57 
  -5  -5  -5   21.28    1.27 
  -5  -5  -5   23.85    0.82 
  -5  -5  -6    0.24    0.42 
  -5  -5  -7    7.91    0.60 
  -5  -5  -7    9.99    0.56 
  -5  -5  -8    0.17    0.32 
  -5  -6   7    0.15    0.16 
  -5  -6   6    0.08    0.69 
  -5  -6   6    0.28    0.77 
  -5  -6   5    0.44    0.97 
  -5  -6   4    0.00    0.28 
  -5  -6   4   -0.21    0.27 
  -5  -6   4   -0.22    1.13 
  -5  -6   4    0.04    0.17 
  -5  -6   3   -0.35    0.30 
  -5  -6   3    0.15    0.34 
  -5  -6   3    0.07    0.32 
  -5  -6   3   -0.02    0.19 
  -5  -6   2   -0.02    0.25 
  -5  -6   2   -0.03    0.24 
  -5  -6   2    0.30    0.30 
  -5  -6   2    0.20    0.38 
  -5  -6   2   -0.03    0.38 
  -5  -6   2    0.11    0.22 
  -5  -6   1    0.68    0.43 
  -5  -6   1    0.14    0.43 
  -5  -6   1    0.09    0.26 
  -5  -6   1    0.00    0.28 
  -5  -6   1   -0.06    0.24 
  -5  -6   0    0.39    0.38 
  -5  -6   0   -0.13    0.46 
  -5  -6   0   -0.09    0.46 
  -5  -6   0    0.02    0.27 
  -5  -6   0    0.04    0.29 
  -5  -6   0    0.29    0.82 
  -5  -6  -1    0.04    0.27 
  -5  -6  -1    0.00    0.29 
  -5  -6  -1    0.34    0.85 
  -5  -6  -1    0.04    0.31 
  -5  -6  -1    0.15    0.48 
  -5  -6  -1   -0.08    0.47 
  -5  -6  -1    0.35    0.40 
  -5  -6  -2   -0.01    0.35 
  -5  -6  -2   -0.14    0.48 
  -5  -6  -2    0.06    0.31 
  -5  -6  -2   -0.22    0.39 
  -5  -6  -3    0.77    0.51 
  -5  -6  -3    0.85    0.41 
  -5  -6  -3    0.69    0.29 
  -5  -6  -3    0.13    0.31 
  -5  -6  -3    0.28    0.38 
  -5  -6  -3    0.68    0.47 
  -5  -6  -4    0.09    0.29 
  -5  -6  -4    0.08    0.28 
  -5  -6  -4   -0.02    0.39 
  -5  -6  -4   -0.02    0.46 
  -5  -6  -5    1.21    0.50 
  -5  -6  -5    0.85    0.41 
  -5  -6  -5    1.08    0.37 
  -5  -6  -6    0.18    0.35 
  -5  -6  -7    1.19    0.36 
  -5  -7   5    0.22    0.69 
  -5  -7   4    0.31    0.85 
  -5  -7   3   -0.10    0.24 
  -5  -7   2   -0.21    0.25 
  -5  -7   1    0.01    0.21 
  -5  -7   1    0.00    0.22 
  -5  -7   1   -0.02    0.16 
  -5  -7   0    0.03    0.24 
  -5  -7   0    0.01    0.23 
  -5  -7   0   -0.03    0.17 
  -5  -7  -1    0.04    0.24 
  -5  -7  -1   -0.01    0.23 
  -5  -7  -1    0.37    0.66 
  -5  -7  -1    0.32    0.27 
  -5  -7  -1    0.18    0.32 
  -5  -7  -2    0.22    0.33 
  -5  -7  -2    0.08    0.27 
  -5  -7  -3    0.04    0.38 
  -5  -7  -3   -0.08    0.33 
  -5  -7  -3    0.07    0.24 
  -5  -7  -3   -0.04    0.23 
  -5  -7  -4    0.38    0.32 
  -5  -7  -4    0.57    0.25 
  -5  -7  -4    0.53    0.29 
  -5  -7  -4    0.25    0.23 
  -5  -7  -5    0.35    0.28 
  -5  -7  -6    1.28    0.30 
  -5  -8   4    0.11    0.53 
  -5  -8   3    0.22    0.66 
  -5  -8   2    0.10    0.18 
  -5  -8   0    0.01    0.18 
  -5  -8   0    0.01    0.17 
  -5  -8   0   -0.01    0.20 
  -5  -8  -1    0.00    0.18 
  -5  -8  -1    0.01    0.17 
  -5  -8  -1    0.14    0.20 
  -5  -8  -3   -0.03    0.43 
  -5  -8  -3    0.01    0.17 
  -5  -8  -3   -0.13    0.19 
  -5  -8  -3    0.05    0.24 
  -5  -8  -4    0.00    0.40 
  -5  -8  -5   -0.10    0.34 
  -4   8   2    0.21    0.28 
  -4   8   1    1.45    0.36 
  -4   8   1    1.58    0.44 
  -4   8   0    0.10    0.38 
  -4   8   0    0.08    0.34 
  -4   8   0    0.10    0.20 
  -4   8  -1    0.09    0.21 
  -4   8  -3    0.01    0.16 
  -4   7   4    0.46    0.44 
  -4   7   3    0.63    0.65 
  -4   7   3    0.75    0.57 
  -4   7   3    1.88    0.54 
  -4   7   2    3.21    0.67 
  -4   7   1    0.34    0.61 
  -4   7   1   -0.01    0.34 
  -4   7   1    0.71    0.63 
  -4   7   0    0.21    0.38 
  -4   7   0    0.42    0.61 
  -4   7   0    0.92    0.63 
  -4   7   0    0.92    0.73 
  -4   7  -1    0.28    0.60 
  -4   7  -1    0.51    0.69 
  -4   7  -1    0.80    0.64 
  -4   7  -1    0.37    0.39 
  -4   7  -2    0.30    0.60 
  -4   7  -3   -0.10    0.53 
  -4   7  -3    0.03    0.32 
  -4   7  -4    0.14    0.28 
  -4   7  -5   -0.12    0.22 
  -4   6   7    0.01    0.23 
  -4   6   6    0.33    0.47 
  -4   6   6    1.17    0.46 
  -4   6   5    2.09    0.62 
  -4   6   5    1.43    0.67 
  -4   6   4    0.15    0.36 
  -4   6   4   -0.20    0.36 
  -4   6   4    1.02    0.68 
  -4   6   4    0.04    0.73 
  -4   6   3   -0.01    0.38 
  -4   6   3   -0.04    0.38 
  -4   6   3    0.51    0.73 
  -4   6   3    0.58    0.83 
  -4   6   2   -0.13    0.41 
  -4   6   2   -0.28    0.41 
  -4   6   2    0.14    0.70 
  -4   6   2    0.96    0.75 
  -4   6   2    1.11    0.90 
  -4   6   2   -0.01    0.36 
  -4   6   2    0.13    0.77 
  -4   6   1    0.20    0.44 
  -4   6   1    0.51    0.44 
  -4   6   1    0.99    0.75 
  -4   6   1    0.30    0.45 
  -4   6   1    1.46    0.81 
  -4   6   1    0.33    0.79 
  -4   6   0    0.14    0.44 
  -4   6   0    0.16    0.46 
  -4   6   0    0.65    0.80 
  -4   6   0    0.37    0.88 
  -4   6   0    0.41    0.46 
  -4   6   0    0.70    0.74 
  -4   6  -1    9.47    1.05 
  -4   6  -1    7.00    0.95 
  -4   6  -1    7.50    0.92 
  -4   6  -2    6.83    0.96 
  -4   6  -2    6.76    0.99 
  -4   6  -2    7.18    0.63 
  -4   6  -3    0.63    0.43 
  -4   6  -3    0.01    0.82 
  -4   6  -3    0.25    0.68 
  -4   6  -4    0.13    0.68 
  -4   6  -4    0.68    0.40 
  -4   6  -5    1.17    0.52 
  -4   6  -5    0.66    0.52 
  -4   6  -5   -0.21    0.79 
  -4   6  -5    1.51    0.37 
  -4   6  -6   -0.42    0.69 
  -4   6  -6    0.26    0.27 
  -4   6  -7   -0.43    0.55 
  -4   5   7    3.75    0.49 
  -4   5   6    0.29    0.66 
  -4   5   5    0.79    0.78 
  -4   5   4    2.35    0.88 
  -4   5   4    1.72    0.88 
  -4   5   3    0.98    0.84 
  -4   5   3    0.10    0.89 
  -4   5   2   -0.12    0.51 
  -4   5   2    0.24    0.52 
  -4   5   2    0.39    0.93 
  -4   5   2    0.21    0.42 
  -4   5   2    0.43    0.75 
  -4   5   1   20.15    1.11 
  -4   5   1   19.23    1.07 
  -4   5   1   27.91    1.42 
  -4   5   1   29.96    1.54 
  -4   5   0   11.06    0.93 
  -4   5   0   10.29    0.91 
  -4   5   0   17.10    1.18 
  -4   5   0   15.79    1.16 
  -4   5  -1    1.33    0.67 
  -4   5  -1    1.22    0.65 
  -4   5  -1    3.02    0.86 
  -4   5  -1    1.73    0.93 
  -4   5  -1    2.04    0.96 
  -4   5  -1    2.71    1.00 
  -4   5  -2    2.84    1.00 
  -4   5  -2    0.74    0.96 
  -4   5  -2    2.29    0.99 
  -4   5  -3    0.84    0.74 
  -4   5  -3   -1.23    0.98 
  -4   5  -3    0.54    0.75 
  -4   5  -3   -0.23    0.82 
  -4   5  -3   -0.26    0.99 
  -4   5  -3    1.25    0.48 
  -4   5  -3    0.31    1.00 
  -4   5  -3    0.26    0.90 
  -4   5  -4    1.20    0.76 
  -4   5  -4    0.62    0.93 
  -4   5  -4   -0.34    0.99 
  -4   5  -4    0.61    0.70 
  -4   5  -4    0.37    0.81 
  -4   5  -4    1.73    0.48 
  -4   5  -5   -0.28    0.64 
  -4   5  -5    0.18    0.61 
  -4   5  -5   -0.47    0.87 
  -4   5  -5    0.03    0.94 
  -4   5  -5    0.98    0.43 
  -4   5  -6    3.54    0.59 
  -4   5  -6    2.72    0.80 
  -4   5  -6    1.97    0.57 
  -4   5  -6    2.75    0.44 
  -4   5  -7    0.28    0.78 
  -4   5  -8    0.05    0.57 
  -4   4   9    1.55    0.25 
  -4   4   8    1.18    0.53 
  -4   4   8    1.80    0.45 
  -4   4   7    1.13    0.44 
  -4   4   7    0.97    0.42 
  -4   4   7    2.04    0.68 
  -4   4   6    3.86    0.85 
  -4   4   6    1.96    0.81 
  -4   4   5    0.85    0.79 
  -4   4   5    0.99    0.76 
  -4   4   5    0.43    0.49 
  -4   4   4    2.63    0.82 
  -4   4   4    1.56    0.83 
  -4   4   4    2.97    0.56 
  -4   4   4    1.20    0.81 
  -4   4   3    1.95    0.88 
  -4   4   3    3.43    0.87 
  -4   4   3    2.37    0.81 
  -4   4   3    4.92    0.60 
  -4   4   2    4.63    0.81 
  -4   4   2    5.00    0.90 
  -4   4   2    3.88    0.96 
  -4   4   2    3.54    0.48 
  -4   4   2    5.94    0.76 
  -4   4   2    5.21    0.89 
  -4   4   1    3.31    0.86 
  -4   4   1    3.28    1.00 
  -4   4   1    6.44    0.85 
  -4   4   1    5.16    0.94 
  -4   4   1    4.26    0.94 
  -4   4   0   60.52    1.95 
  -4   4   0   52.88    1.82 
  -4   4  -1    7.41    0.96 
  -4   4  -1    7.20    1.12 
  -4   4  -1    7.92    1.05 
  -4   4  -1    4.15    0.96 
  -4   4  -2   13.68    1.25 
  -4   4  -2    9.98    1.23 
  -4   4  -2   12.85    1.11 
  -4   4  -2   10.21    1.07 
  -4   4  -2   15.05    1.08 
  -4   4  -2   12.92    1.00 
  -4   4  -3    0.82    0.45 
  -4   4  -3   -0.45    1.07 
  -4   4  -3   -0.12    0.86 
  -4   4  -3   -0.70    1.11 
  -4   4  -3   -0.88    0.97 
  -4   4  -3    0.79    0.70 
  -4   4  -3    0.36    0.74 
  -4   4  -3   -0.47    0.91 
  -4   4  -4   -0.20    0.99 
  -4   4  -4   -0.56    0.98 
  -4   4  -4    0.31    0.69 
  -4   4  -4   -0.14    0.76 
  -4   4  -4   -0.11    0.44 
  -4   4  -4   -0.76    1.22 
  -4   4  -4   -0.21    0.91 
  -4   4  -4   -0.06    0.82 
  -4   4  -4   -0.92    0.94 
  -4   4  -5    4.70    0.85 
  -4   4  -5    5.29    0.83 
  -4   4  -5    5.33    1.17 
  -4   4  -5   -0.03    1.03 
  -4   4  -5    6.59    0.63 
  -4   4  -5    4.79    1.08 
  -4   4  -5    1.86    0.99 
  -4   4  -6    0.32    0.62 
  -4   4  -6    0.06    0.85 
  -4   4  -6    0.30    0.60 
  -4   4  -6   -0.12    0.98 
  -4   4  -6    0.14    0.44 
  -4   4  -6    0.04    0.86 
  -4   4  -6    0.23    0.79 
  -4   4  -7    0.22    0.39 
  -4   4  -7    0.52    0.72 
  -4   4  -8    0.77    0.86 
  -4   4  -9   -0.15    0.64 
  -4   3   9    0.60    0.42 
  -4   3   8    4.97    0.57 
  -4   3   8    4.84    0.56 
  -4   3   7    8.24    0.76 
  -4   3   7    7.28    0.72 
  -4   3   6    1.76    0.55 
  -4   3   6    1.62    0.55 
  -4   3   6    1.86    0.77 
  -4   3   6    0.54    0.71 
  -4   3   5    8.83    0.81 
  -4   3   5    9.46    0.84 
  -4   3   5   10.31    0.83 
  -4   3   5    6.18    0.92 
  -4   3   5    5.16    0.90 
  -4   3   4    0.13    0.50 
  -4   3   4   -0.79    0.54 
  -4   3   4   -0.08    0.36 
  -4   3   4    0.14    0.67 
  -4   3   4   -0.24    0.61 
  -4   3   4   -0.23    0.71 
  -4   3   4    0.09    0.43 
  -4   3   3   -0.11    0.46 
  -4   3   3   -0.41    0.50 
  -4   3   3   -0.04    0.33 
  -4   3   3    0.16    0.39 
  -4   3   3    0.20    0.65 
  -4   3   3    0.13    0.57 
  -4   3   3   -0.14    0.69 
  -4   3   3   -0.03    0.71 
  -4   3   2    1.55    0.52 
  -4   3   2    1.23    0.51 
  -4   3   2    1.13    0.35 
  -4   3   2    2.38    0.69 
  -4   3   2    1.45    0.59 
  -4   3   2    1.32    0.75 
  -4   3   2    2.12    0.45 
  -4   3   2    1.14    0.71 
  -4   3   1  135.87    3.13 
  -4   3   1  134.40    3.10 
  -4   3   1  144.58    3.16 
  -4   3   1  167.40    3.25 
  -4   3   1  160.89    3.19 
  -4   3   1  135.13    2.76 
  -4   3   1  125.48    2.69 
  -4   3   1  146.19    3.08 
  -4   3   0  123.05    2.91 
  -4   3   0  128.51    2.96 
  -4   3   0  111.56    2.45 
  -4   3   0  119.32    2.83 
  -4   3   0  126.75    2.86 
  -4   3   0  139.08    2.95 
  -4   3   0  123.48    2.49 
  -4   3   0  111.42    2.72 
  -4   3  -1   27.53    1.27 
  -4   3  -1   27.91    1.31 
  -4   3  -1   24.88    1.31 
  -4   3  -1   22.38    0.87 
  -4   3  -1   19.85    1.14 
  -4   3  -2   23.91    1.30 
  -4   3  -2   24.54    1.33 
  -4   3  -2   10.88    0.99 
  -4   3  -2   14.60    1.08 
  -4   3  -2   17.95    1.23 
  -4   3  -2   19.44    0.81 
  -4   3  -2   21.43    1.20 
  -4   3  -2   22.77    0.94 
  -4   3  -2   26.30    1.05 
  -4   3  -3    9.63    0.83 
  -4   3  -3    0.43    0.84 
  -4   3  -3    7.28    1.07 
  -4   3  -3    7.97    0.77 
  -4   3  -3    3.59    0.84 
  -4   3  -3    7.74    0.60 
  -4   3  -3    5.17    1.10 
  -4   3  -3    3.20    1.17 
  -4   3  -3    7.26    0.94 
  -4   3  -3    7.09    1.00 
  -4   3  -4    0.12    0.62 
  -4   3  -4    0.08    0.66 
  -4   3  -4    0.02    0.90 
  -4   3  -4   -0.12    0.88 
  -4   3  -4   -0.06    0.42 
  -4   3  -4   -0.50    0.96 
  -4   3  -4   -0.49    1.19 
  -4   3  -4   -0.34    0.86 
  -4   3  -4   -0.22    0.93 
  -4   3  -5    2.83    0.76 
  -4   3  -5    2.82    1.06 
  -4   3  -5    2.56    0.68 
  -4   3  -5    0.51    0.96 
  -4   3  -5    2.90    0.54 
  -4   3  -5    3.86    1.09 
  -4   3  -5    3.02    1.00 
  -4   3  -6   17.94    1.02 
  -4   3  -6   19.78    0.99 
  -4   3  -6   28.43    1.62 
  -4   3  -6   20.92    0.97 
  -4   3  -6   11.08    1.46 
  -4   3  -6   12.60    1.53 
  -4   3  -7    0.67    1.00 
  -4   3  -7    3.93    0.90 
  -4   3  -7    2.11    0.99 
  -4   3  -7    1.72    0.92 
  -4   3  -8   -0.33    0.94 
  -4   3  -8    0.36    0.76 
  -4   3  -8    0.03    0.71 
  -4   3  -9   -0.55    0.84 
  -4   3  -9    0.31    0.58 
  -4   3  -9    0.21    0.53 
  -4   2   9    0.05    0.34 
  -4   2   8    0.25    0.61 
  -4   2   8    0.19    0.43 
  -4   2   8   -0.17    0.43 
  -4   2   8   -0.24    0.45 
  -4   2   7   -0.11    0.69 
  -4   2   7   -0.32    0.46 
  -4   2   7   -0.42    0.51 
  -4   2   7   -0.18    0.50 
  -4   2   6    3.40    0.41 
  -4   2   6    3.73    0.41 
  -4   2   6    4.32    0.67 
  -4   2   6    3.74    0.64 
  -4   2   5    1.10    0.34 
  -4   2   5    0.98    0.33 
  -4   2   5    0.91    0.51 
  -4   2   5    0.65    0.50 
  -4   2   5   -0.39    0.64 
  -4   2   5    0.29    0.62 
  -4   2   5    1.27    0.45 
  -4   2   4   -0.56    0.51 
  -4   2   4   -0.11    0.48 
  -4   2   4    0.68    0.39 
  -4   2   4    0.39    0.62 
  -4   2   4    0.29    0.61 
  -4   2   4    0.34    0.39 
  -4   2   3   -0.37    0.49 
  -4   2   3   -0.33    0.49 
  -4   2   3    0.19    0.30 
  -4   2   3   -0.24    0.54 
  -4   2   3   -0.01    0.57 
  -4   2   3    0.55    0.34 
  -4   2   2   12.35    0.76 
  -4   2   2   11.84    0.74 
  -4   2   2   10.11    0.62 
  -4   2   1    1.30    0.43 
  -4   2   1    1.18    0.44 
  -4   2   0    1.05    0.49 
  -4   2   0    0.77    0.47 
  -4   2  -1    3.69    0.63 
  -4   2  -1    4.42    0.63 
  -4   2  -2   20.63    0.79 
  -4   2  -2   28.94    1.31 
  -4   2  -2   29.95    1.33 
  -4   2  -2   25.50    1.07 
  -4   2  -2   24.15    1.10 
  -4   2  -2   23.78    0.86 
  -4   2  -2   20.99    0.80 
  -4   2  -3    2.93    0.43 
  -4   2  -3    3.90    0.79 
  -4   2  -3    3.81    0.84 
  -4   2  -3    1.59    0.69 
  -4   2  -3    2.76    0.49 
  -4   2  -3    3.89    0.54 
  -4   2  -4    3.23    0.50 
  -4   2  -4    4.10    0.98 
  -4   2  -4    3.05    0.88 
  -4   2  -4    4.82    1.01 
  -4   2  -4    4.35    0.95 
  -4   2  -5    9.85    0.72 
  -4   2  -5   12.02    1.26 
  -4   2  -5   11.12    1.20 
  -4   2  -5   13.40    1.26 
  -4   2  -5   13.84    1.33 
  -4   2  -5   10.51    1.11 
  -4   2  -5    9.91    1.14 
  -4   2  -6   27.33    1.12 
  -4   2  -6   30.51    1.60 
  -4   2  -6   26.80    1.61 
  -4   2  -6   15.23    1.50 
  -4   2  -6   40.37    1.73 
  -4   2  -6   38.75    1.65 
  -4   2  -6   25.43    1.51 
  -4   2  -6   26.54    1.49 
  -4   2  -7    6.51    1.07 
  -4   2  -7    5.06    1.19 
  -4   2  -7   10.94    1.15 
  -4   2  -7   11.61    1.20 
  -4   2  -7    7.38    1.01 
  -4   2  -7    9.26    1.07 
  -4   2  -8    3.94    0.90 
  -4   2  -8    3.61    1.15 
  -4   2  -9    0.39    0.69 
  -4   2  -9    0.46    0.63 
  -4   2  -9   -0.26    0.92 
  -4   2  -9    0.84    0.65 
  -4   2 -10    0.40    0.50 
  -4   2 -10    0.13    0.47 
  -4   1  10   -0.06    0.23 
  -4   1   9   -0.11    0.35 
  -4   1   8    0.13    0.43 
  -4   1   8    0.34    0.43 
  -4   1   8    0.03    0.39 
  -4   1   8    0.18    0.38 
  -4   1   8   -0.27    0.61 
  -4   1   8    0.58    0.45 
  -4   1   7    0.22    0.45 
  -4   1   7    0.79    0.47 
  -4   1   7    0.22    0.42 
  -4   1   7    0.04    0.42 
  -4   1   7   -0.30    0.67 
  -4   1   7    0.72    0.47 
  -4   1   6    1.90    0.51 
  -4   1   6    2.17    0.53 
  -4   1   6    2.60    0.44 
  -4   1   6    2.31    0.43 
  -4   1   5    0.61    0.42 
  -4   1   5    0.35    0.42 
  -4   1   5    0.35    0.39 
  -4   1   5    0.70    0.39 
  -4   1   5   -0.13    0.57 
  -4   1   5    0.69    0.40 
  -4   1   4    3.10    0.49 
  -4   1   4    3.83    0.52 
  -4   1   4    3.52    0.41 
  -4   1   4    3.47    0.39 
  -4   1   4    1.93    1.31 
  -4   1   4   -0.02    0.51 
  -4   1   4    4.06    0.47 
  -4   1   4    0.24    0.24 
  -4   1   3   11.47    0.71 
  -4   1   3   11.92    0.73 
  -4   1   3   13.02    0.51 
  -4   1   3   14.09    0.52 
  -4   1   3   14.32    0.66 
  -4   1   2   -0.01    0.36 
  -4   1   2    0.37    0.35 
  -4   1   2    0.05    0.29 
  -4   1   2    0.20    0.27 
  -4   1   1   -0.18    0.37 
  -4   1   1    0.09    0.34 
  -4   1   1   -0.05    0.30 
  -4   1   1   -0.07    0.28 
  -4   1   0   34.48    1.24 
  -4   1   0   34.38    1.22 
  -4   1   0   30.84    0.79 
  -4   1  -1   91.86    2.18 
  -4   1  -1   94.89    2.22 
  -4   1  -1   87.21    1.50 
  -4   1  -2   32.20    0.78 
  -4   1  -2   39.80    1.12 
  -4   1  -2   39.09    1.14 
  -4   1  -2   35.06    1.49 
  -4   1  -3    0.44    0.66 
  -4   1  -3    0.96    0.64 
  -4   1  -3    0.68    0.69 
  -4   1  -3    0.15    0.70 
  -4   1  -4    0.84    0.80 
  -4   1  -4    0.92    0.88 
  -4   1  -4    0.29    0.38 
  -4   1  -5   40.25    1.76 
  -4   1  -5   21.09    1.49 
  -4   1  -5   24.44    1.05 
  -4   1  -5   50.59    1.77 
  -4   1  -5   47.66    1.71 
  -4   1  -6   25.17    1.45 
  -4   1  -6   23.19    1.38 
  -4   1  -6   25.48    1.61 
  -4   1  -6   18.09    1.53 
  -4   1  -6   33.73    1.65 
  -4   1  -6   29.92    1.53 
  -4   1  -7   34.33    1.53 
  -4   1  -7   33.40    1.56 
  -4   1  -7   37.54    2.38 
  -4   1  -7   37.43    2.37 
  -4   1  -7   29.45    1.90 
  -4   1  -7   36.33    1.75 
  -4   1  -8    6.32    1.12 
  -4   1  -8    3.99    1.07 
  -4   1  -8   10.75    1.42 
  -4   1  -8   12.91    1.18 
  -4   1  -8   13.15    1.07 
  -4   1  -8   12.73    1.08 
  -4   1  -9   -0.03    0.67 
  -4   1  -9    0.55    0.74 
  -4   1  -9   -0.02    0.75 
  -4   1  -9    0.16    0.67 
  -4   1  -9    0.80    0.74 
  -4   1 -10    1.40    0.61 
  -4   1 -10    0.48    0.55 
  -4   1 -10    0.37    0.58 
  -4   0  10    0.21    0.25 
  -4   0   9    0.01    0.35 
  -4   0   9    0.03    0.35 
  -4   0   9    0.08    0.36 
  -4   0   8    0.90    0.55 
  -4   0   8    1.54    0.53 
  -4   0   7    1.54    0.43 
  -4   0   7    1.24    0.42 
  -4   0   7    0.18    0.44 
  -4   0   7    0.35    0.45 
  -4   0   7    1.44    0.64 
  -4   0   7    2.14    0.48 
  -4   0   6    3.12    0.51 
  -4   0   6    3.17    0.50 
  -4   0   6    4.00    0.48 
  -4   0   6    3.27    0.47 
  -4   0   6    4.49    0.67 
  -4   0   5    2.82    0.47 
  -4   0   5    3.38    0.49 
  -4   0   5    3.82    0.46 
  -4   0   5    3.56    0.46 
  -4   0   5   -0.34    1.47 
  -4   0   5    0.48    0.29 
  -4   0   5    3.52    0.49 
  -4   0   4    4.36    0.49 
  -4   0   4    3.99    0.47 
  -4   0   4    5.20    0.43 
  -4   0   4    4.22    0.42 
  -4   0   4    5.37    0.48 
  -4   0   3    9.24    0.58 
  -4   0   3    8.72    0.57 
  -4   0   3   10.52    0.50 
  -4   0   3   10.01    0.48 
  -4   0   2    0.91    0.33 
  -4   0   2    0.84    0.33 
  -4   0   2    1.26    0.32 
  -4   0   2    0.80    0.32 
  -4   0   1   20.73    0.88 
  -4   0   1   21.79    0.91 
  -4   0   1   28.11    0.72 
  -4   0   1   27.60    0.73 
  -4   0   0    0.96    0.50 
  -4   0   0    1.02    0.50 
  -4   0   0    2.87    0.39 
  -4   0   0    2.72    0.41 
  -4   0  -1   18.79    0.64 
  -4   0  -1   19.89    0.64 
  -4   0  -1   14.43    1.01 
  -4   0  -1   13.05    0.80 
  -4   0  -1   14.13    0.83 
  -4   0  -1   13.60    0.68 
  -4   0  -2   13.32    1.00 
  -4   0  -2   12.82    0.63 
  -4   0  -2   15.98    0.63 
  -4   0  -2   13.86    0.98 
  -4   0  -2   15.85    1.10 
  -4   0  -3   13.52    1.06 
  -4   0  -3    9.04    0.60 
  -4   0  -3   11.69    0.60 
  -4   0  -3   12.18    1.00 
  -4   0  -3    9.30    0.64 
  -4   0  -3   15.74    1.61 
  -4   0  -3   13.46    1.16 
  -4   0  -3   13.47    1.56 
  -4   0  -4    0.76    0.45 
  -4   0  -4    0.76    0.79 
  -4   0  -4    0.88    0.73 
  -4   0  -4    0.64    0.74 
  -4   0  -4    0.54    0.76 
  -4   0  -4    0.50    1.17 
  -4   0  -4    1.01    1.21 
  -4   0  -4    1.36    0.90 
  -4   0  -4   -0.14    0.64 
  -4   0  -5    0.53    0.87 
  -4   0  -5    2.56    1.32 
  -4   0  -5    2.07    1.28 
  -4   0  -5    0.21    0.75 
  -4   0  -5    0.95    0.50 
  -4   0  -6   15.15    1.51 
  -4   0  -6   11.82    1.35 
  -4   0  -7    8.57    1.08 
  -4   0  -7    8.57    1.05 
  -4   0  -7    7.85    0.67 
  -4   0  -7    9.41    1.19 
  -4   0  -7    5.92    1.30 
  -4   0  -8   12.39    1.18 
  -4   0  -8   10.27    1.02 
  -4   0  -8   11.34    1.07 
  -4   0  -9    8.55    0.98 
  -4   0  -9   10.09    1.23 
  -4   0  -9    9.81    0.95 
  -4   0  -9    9.88    0.90 
  -4   0  -9   11.17    1.27 
  -4   0 -10    0.07    0.65 
  -4   0 -10    0.33    0.59 
  -4   0 -10    0.03    0.61 
  -4  -1  10    0.42    0.26 
  -4  -1   9    3.56    0.44 
  -4  -1   8    3.31    0.50 
  -4  -1   7    0.09    0.42 
  -4  -1   7   -0.14    0.55 
  -4  -1   6   -0.32    1.50 
  -4  -1   6    2.06    1.57 
  -4  -1   6    3.44    0.59 
  -4  -1   5   15.35    0.75 
  -4  -1   5    9.92    1.68 
  -4  -1   4    0.22    0.27 
  -4  -1   4   -0.12    0.39 
  -4  -1   3    0.15    0.34 
  -4  -1   2    3.96    0.39 
  -4  -1   2    3.43    0.38 
  -4  -1   1    2.37    0.39 
  -4  -1   1    2.66    0.41 
  -4  -1   0  153.91    2.64 
  -4  -1   0  120.75    2.80 
  -4  -1   0  167.69    2.70 
  -4  -1   0  135.54    2.72 
  -4  -1  -1   51.55    1.38 
  -4  -1  -1   62.02    1.26 
  -4  -1  -1   44.76    1.49 
  -4  -1  -1   60.20    1.26 
  -4  -1  -1   44.29    1.47 
  -4  -1  -1   48.88    1.28 
  -4  -1  -1   45.64    1.56 
  -4  -1  -2   70.39    1.54 
  -4  -1  -2   61.94    1.87 
  -4  -1  -2   61.98    1.89 
  -4  -1  -2   70.56    1.61 
  -4  -1  -2   66.13    2.03 
  -4  -1  -3   10.86    1.06 
  -4  -1  -3    9.87    0.89 
  -4  -1  -3    9.82    0.61 
  -4  -1  -3   11.27    0.67 
  -4  -1  -3   10.55    0.65 
  -4  -1  -3   10.36    0.87 
  -4  -1  -3   10.34    1.38 
  -4  -1  -3   10.47    1.38 
  -4  -1  -4    1.14    0.44 
  -4  -1  -4    0.70    0.58 
  -4  -1  -4    1.29    1.13 
  -4  -1  -4    0.58    1.03 
  -4  -1  -4    0.56    0.65 
  -4  -1  -4    0.76    0.69 
  -4  -1  -4    0.71    0.41 
  -4  -1  -4    0.99    0.84 
  -4  -1  -5   91.36    1.84 
  -4  -1  -5   89.45    2.32 
  -4  -1  -5   86.18    2.25 
  -4  -1  -5   72.27    1.83 
  -4  -1  -5   49.49    2.41 
  -4  -1  -5   47.72    2.22 
  -4  -1  -5   93.95    3.45 
  -4  -1  -5   91.37    3.42 
  -4  -1  -5   83.28    2.46 
  -4  -1  -6    1.71    1.22 
  -4  -1  -6    3.09    1.13 
  -4  -1  -6    5.08    0.62 
  -4  -1  -6    4.35    1.34 
  -4  -1  -6    3.55    1.33 
  -4  -1  -6    3.52    0.61 
  -4  -1  -7   36.10    2.24 
  -4  -1  -7   37.37    2.28 
  -4  -1  -7   34.91    1.12 
  -4  -1  -8   -0.24    0.51 
  -4  -1  -8   -0.34    0.74 
  -4  -1  -8   -0.46    0.80 
  -4  -1  -8   -0.13    0.84 
  -4  -1  -9    7.28    0.90 
  -4  -1  -9    7.68    0.87 
  -4  -1  -9    7.35    0.93 
  -4  -1 -10    2.18    0.65 
  -4  -1 -10    2.14    0.67 
  -4  -1 -10    0.65    0.67 
  -4  -2  10    5.39    0.33 
  -4  -2   9    0.96    0.33 
  -4  -2   8    3.48    0.58 
  -4  -2   8    3.07    0.47 
  -4  -2   7    0.59    1.45 
  -4  -2   7    5.03    0.64 
  -4  -2   6    1.28    0.53 
  -4  -2   6   -0.02    0.29 
  -4  -2   6    2.28    1.60 
  -4  -2   5   18.38    1.88 
  -4  -2   5   20.25    0.79 
  -4  -2   4    0.14    0.42 
  -4  -2   4    0.16    0.27 
  -4  -2   3    0.06    0.27 
  -4  -2   3    3.15    0.31 
  -4  -2   2   36.60    0.84 
  -4  -2   2   37.01    0.83 
  -4  -2   1   15.15    0.50 
  -4  -2   1   15.59    0.51 
  -4  -2   1   16.81    0.86 
  -4  -2   1   14.86    0.52 
  -4  -2   1   15.52    0.70 
  -4  -2   0   25.09    0.66 
  -4  -2   0   25.51    0.64 
  -4  -2   0   26.39    0.83 
  -4  -2   0   22.17    1.18 
  -4  -2   0   23.58    1.12 
  -4  -2   0   22.64    0.65 
  -4  -2   0   26.47    0.91 
  -4  -2  -1    4.76    0.74 
  -4  -2  -1    5.84    0.53 
  -4  -2  -1    4.14    0.77 
  -4  -2  -1    5.03    0.32 
  -4  -2  -1    5.58    0.50 
  -4  -2  -1    5.25    0.34 
  -4  -2  -2   53.94    1.25 
  -4  -2  -2   48.17    1.78 
  -4  -2  -2   39.53    1.51 
  -4  -2  -2   42.61    1.93 
  -4  -2  -2   50.49    1.29 
  -4  -2  -2   44.94    1.42 
  -4  -2  -2   43.76    1.43 
  -4  -2  -2   43.99    1.97 
  -4  -2  -3   33.24    1.28 
  -4  -2  -3   33.90    1.26 
  -4  -2  -3   33.07    0.79 
  -4  -2  -3   34.89    0.80 
  -4  -2  -3   34.34    1.91 
  -4  -2  -3   32.12    1.43 
  -4  -2  -3   37.54    1.52 
  -4  -2  -3   34.90    1.90 
  -4  -2  -3   38.22    1.10 
  -4  -2  -4   -0.03    0.91 
  -4  -2  -4   -0.45    0.93 
  -4  -2  -4    0.11    0.26 
  -4  -2  -4    0.02    0.25 
  -4  -2  -4   -0.02    0.80 
  -4  -2  -4    0.18    0.74 
  -4  -2  -4    0.39    0.58 
  -4  -2  -4    0.22    0.60 
  -4  -2  -4    0.02    0.37 
  -4  -2  -4   -0.03    0.40 
  -4  -2  -5    2.94    0.51 
  -4  -2  -5    1.43    1.00 
  -4  -2  -5    2.99    0.52 
  -4  -2  -5    2.27    0.72 
  -4  -2  -5    2.80    0.71 
  -4  -2  -5    2.41    0.88 
  -4  -2  -5    2.25    1.05 
  -4  -2  -5    2.61    1.08 
  -4  -2  -5    2.32    0.73 
  -4  -2  -6  124.35    3.94 
  -4  -2  -6  124.47    3.31 
  -4  -2  -6  112.48    3.03 
  -4  -2  -6  134.16    2.49 
  -4  -2  -6  120.76    3.91 
  -4  -2  -6  121.32    2.87 
  -4  -2  -6  121.90    2.84 
  -4  -2  -6  106.96    2.51 
  -4  -2  -7    0.65    0.97 
  -4  -2  -7    0.38    1.03 
  -4  -2  -7    0.84    0.51 
  -4  -2  -7    0.98    0.48 
  -4  -2  -8    6.92    1.19 
  -4  -2  -8    6.23    1.18 
  -4  -2  -8    7.52    0.62 
  -4  -2  -9    0.60    0.84 
  -4  -2  -9    0.36    0.81 
  -4  -2  -9    0.28    0.46 
  -4  -2  -9    0.45    0.67 
  -4  -2  -9   -0.03    0.64 
  -4  -2 -10   -0.64    0.59 
  -4  -2 -10   -0.42    0.62 
  -4  -2 -10   -0.11    0.62 
  -4  -3  10    0.54    0.17 
  -4  -3   9    4.10    0.44 
  -4  -3   9    3.69    0.37 
  -4  -3   8    0.87    0.35 
  -4  -3   8    0.28    0.33 
  -4  -3   8    1.01    0.38 
  -4  -3   8    0.92    0.45 
  -4  -3   7    0.09    0.38 
  -4  -3   7    0.13    0.38 
  -4  -3   7    0.45    1.28 
  -4  -3   7    0.15    1.30 
  -4  -3   7   -0.29    0.46 
  -4  -3   6    1.19    0.44 
  -4  -3   6    1.72    0.46 
  -4  -3   6    0.03    0.27 
  -4  -3   6    1.04    1.50 
  -4  -3   6    1.74    0.49 
  -4  -3   5    1.92    0.45 
  -4  -3   5    2.83    0.45 
  -4  -3   5    2.97    0.48 
  -4  -3   4   11.22    0.47 
  -4  -3   4   11.71    0.58 
  -4  -3   4   12.24    0.48 
  -4  -3   3    5.91    0.39 
  -4  -3   3    5.58    0.36 
  -4  -3   3    0.20    0.28 
  -4  -3   3    0.33    0.42 
  -4  -3   3    5.26    0.47 
  -4  -3   3    6.69    0.51 
  -4  -3   2    1.55    0.26 
  -4  -3   2    1.60    0.28 
  -4  -3   2    1.49    0.27 
  -4  -3   2    2.90    0.58 
  -4  -3   2    1.87    0.44 
  -4  -3   2    1.24    0.40 
  -4  -3   2    2.25    0.43 
  -4  -3   2    1.45    0.30 
  -4  -3   1   25.55    0.70 
  -4  -3   1   29.72    0.71 
  -4  -3   1   29.26    0.69 
  -4  -3   1   26.36    1.07 
  -4  -3   1   25.13    1.07 
  -4  -3   1   29.12    1.31 
  -4  -3   1   31.20    0.89 
  -4  -3   1   24.37    0.88 
  -4  -3   1   26.50    0.71 
  -4  -3   0    0.17    0.79 
  -4  -3   0    0.59    0.53 
  -4  -3   0    1.03    0.53 
  -4  -3   0    1.10    0.41 
  -4  -3   0    0.46    0.46 
  -4  -3   0    0.65    0.49 
  -4  -3   0    1.28    0.26 
  -4  -3   0    1.11    0.28 
  -4  -3   0    0.93    0.39 
  -4  -3  -1   27.96    0.74 
  -4  -3  -1   30.80    0.93 
  -4  -3  -1   30.56    0.73 
  -4  -3  -1   32.17    0.76 
  -4  -3  -1   26.65    1.44 
  -4  -3  -1   28.71    1.30 
  -4  -3  -1   30.68    1.41 
  -4  -3  -1   32.20    1.02 
  -4  -3  -1   23.07    0.89 
  -4  -3  -1   38.03    1.03 
  -4  -3  -1   32.78    1.24 
  -4  -3  -2    3.91    0.33 
  -4  -3  -2    3.78    0.47 
  -4  -3  -2    2.98    0.82 
  -4  -3  -2    4.11    0.67 
  -4  -3  -2    4.28    0.70 
  -4  -3  -2    3.20    0.53 
  -4  -3  -2    4.46    0.60 
  -4  -3  -2    4.90    0.60 
  -4  -3  -2    4.47    0.51 
  -4  -3  -3    1.93    0.38 
  -4  -3  -3    1.21    0.63 
  -4  -3  -3    1.53    0.54 
  -4  -3  -3    1.89    0.59 
  -4  -3  -3    1.72    0.58 
  -4  -3  -3    0.93    0.53 
  -4  -3  -3    1.86    0.31 
  -4  -3  -3    1.90    0.27 
  -4  -3  -3    1.76    0.28 
  -4  -3  -3    2.10    0.43 
  -4  -3  -3    1.80    0.58 
  -4  -3  -3    2.11    0.62 
  -4  -3  -3    1.67    0.83 
  -4  -3  -3    1.44    0.77 
  -4  -3  -3    1.89    0.59 
  -4  -3  -4    1.20    0.83 
  -4  -3  -4    1.00    0.84 
  -4  -3  -4    1.40    0.30 
  -4  -3  -4    1.41    0.28 
  -4  -3  -4    0.50    0.84 
  -4  -3  -4    1.51    0.69 
  -4  -3  -4    1.10    0.57 
  -4  -3  -4    1.02    0.59 
  -4  -3  -4    1.53    0.45 
  -4  -3  -4    1.48    0.43 
  -4  -3  -5    3.43    0.37 
  -4  -3  -5    0.14    0.49 
  -4  -3  -5    3.54    0.36 
  -4  -3  -5    2.91    0.77 
  -4  -3  -5    2.88    0.98 
  -4  -3  -5    2.33    0.95 
  -4  -3  -5    2.86    0.81 
  -4  -3  -5    3.35    0.52 
  -4  -3  -5    3.01    0.67 
  -4  -3  -5    2.87    0.69 
  -4  -3  -5    3.85    0.57 
  -4  -3  -6   92.65    2.17 
  -4  -3  -6   89.95    2.33 
  -4  -3  -6   89.66    2.35 
  -4  -3  -6  113.89    2.13 
  -4  -3  -6  108.26    2.95 
  -4  -3  -6   81.27    3.06 
  -4  -3  -6   76.18    2.41 
  -4  -3  -6   99.95    2.78 
  -4  -3  -6   82.88    3.08 
  -4  -3  -6  113.30    2.53 
  -4  -3  -7    0.63    0.67 
  -4  -3  -7   -0.17    0.88 
  -4  -3  -7   -0.13    0.85 
  -4  -3  -7    0.71    0.73 
  -4  -3  -7    1.32    0.69 
  -4  -3  -7    0.47    0.63 
  -4  -3  -7    1.04    0.50 
  -4  -3  -7    0.94    0.48 
  -4  -3  -8   18.56    1.47 
  -4  -3  -8   15.31    0.84 
  -4  -3  -8   18.14    1.47 
  -4  -3  -9    1.05    0.45 
  -4  -3  -9    0.54    0.70 
  -4  -3  -9    0.57    0.74 
  -4  -3 -10   -0.17    0.53 
  -4  -3 -10   -0.38    0.56 
  -4  -4   9    0.08    0.20 
  -4  -4   9    0.01    0.23 
  -4  -4   8   -0.02    0.28 
  -4  -4   8   -0.17    0.29 
  -4  -4   7   -0.08    0.34 
  -4  -4   7   -0.17    0.34 
  -4  -4   7    0.05    1.13 
  -4  -4   7    0.14    1.24 
  -4  -4   6    0.43    0.38 
  -4  -4   6    0.55    0.37 
  -4  -4   6    0.11    1.36 
  -4  -4   6    0.17    0.38 
  -4  -4   5    1.75    0.42 
  -4  -4   5    1.88    0.43 
  -4  -4   5    0.71    0.26 
  -4  -4   5   -0.01    0.26 
  -4  -4   5    0.67    1.59 
  -4  -4   4    1.96    0.32 
  -4  -4   4    2.73    0.47 
  -4  -4   4    2.04    0.35 
  -4  -4   3    0.11    0.26 
  -4  -4   3    0.22    0.45 
  -4  -4   3   -0.04    0.28 
  -4  -4   3   -0.96    0.89 
  -4  -4   3    0.30    0.43 
  -4  -4   3    0.75    0.44 
  -4  -4   3    0.77    0.46 
  -4  -4   3    0.05    0.33 
  -4  -4   2    1.08    0.32 
  -4  -4   2    1.39    0.27 
  -4  -4   2    1.63    0.30 
  -4  -4   2    1.37    0.27 
  -4  -4   2    1.34    0.65 
  -4  -4   2    1.96    0.52 
  -4  -4   2    0.34    1.40 
  -4  -4   2    0.98    0.80 
  -4  -4   2    1.17    0.46 
  -4  -4   2    1.83    0.47 
  -4  -4   2    1.89    0.49 
  -4  -4   2    0.03    0.40 
  -4  -4   1   -0.15    0.29 
  -4  -4   1   -0.28    0.28 
  -4  -4   1   -0.07    0.26 
  -4  -4   1   -0.30    0.52 
  -4  -4   1    0.25    0.65 
  -4  -4   1   -0.45    0.87 
  -4  -4   1    0.14    0.41 
  -4  -4   1    0.09    0.38 
  -4  -4   1    0.40    0.46 
  -4  -4   1   -0.21    0.39 
  -4  -4   1    0.10    0.47 
  -4  -4   0    3.16    0.71 
  -4  -4   0    1.55    0.40 
  -4  -4   0    2.60    0.29 
  -4  -4   0    2.32    0.30 
  -4  -4   0    1.58    0.77 
  -4  -4   0    0.17    0.37 
  -4  -4   0    2.04    0.56 
  -4  -4   0    2.08    0.48 
  -4  -4   0    1.88    0.42 
  -4  -4   0    1.28    0.52 
  -4  -4   0    2.20    0.53 
  -4  -4   0    2.34    0.52 
  -4  -4  -1    5.52    0.37 
  -4  -4  -1    5.46    0.49 
  -4  -4  -1    5.10    0.96 
  -4  -4  -1    4.99    0.65 
  -4  -4  -1    5.74    0.74 
  -4  -4  -1    4.66    0.60 
  -4  -4  -1    7.37    0.66 
  -4  -4  -1    4.93    0.52 
  -4  -4  -1    6.15    0.78 
  -4  -4  -2    1.81    0.31 
  -4  -4  -2    1.39    0.42 
  -4  -4  -2    1.30    0.84 
  -4  -4  -2    0.26    0.67 
  -4  -4  -2    1.48    0.55 
  -4  -4  -2    2.01    0.61 
  -4  -4  -2    1.48    0.59 
  -4  -4  -2    1.73    0.59 
  -4  -4  -2    1.55    0.46 
  -4  -4  -2    2.00    0.61 
  -4  -4  -3    0.51    0.47 
  -4  -4  -3    0.51    0.62 
  -4  -4  -3    0.34    0.47 
  -4  -4  -3    0.58    0.59 
  -4  -4  -3    0.56    0.31 
  -4  -4  -3    0.64    0.29 
  -4  -4  -3    0.45    0.26 
  -4  -4  -3    0.72    0.40 
  -4  -4  -3    0.78    0.65 
  -4  -4  -3    0.49    0.52 
  -4  -4  -3    0.68    0.57 
  -4  -4  -3    0.22    0.47 
  -4  -4  -3    0.34    0.33 
  -4  -4  -4    7.15    0.42 
  -4  -4  -4    6.09    0.39 
  -4  -4  -4    4.87    0.79 
  -4  -4  -4    1.96    0.95 
  -4  -4  -4    4.03    0.70 
  -4  -4  -4    4.60    0.61 
  -4  -4  -4    0.19    0.59 
  -4  -4  -4    4.12    0.62 
  -4  -4  -4    6.82    0.80 
  -4  -4  -4    6.85    0.58 
  -4  -4  -5   -0.38    0.75 
  -4  -4  -5   -0.44    0.70 
  -4  -4  -5    0.87    0.34 
  -4  -4  -5    0.67    0.32 
  -4  -4  -5   -0.52    0.80 
  -4  -4  -5    0.02    0.53 
  -4  -4  -5    0.03    0.47 
  -4  -4  -5   -0.06    0.52 
  -4  -4  -5   -0.27    0.66 
  -4  -4  -5   -0.07    0.51 
  -4  -4  -6    1.23    0.69 
  -4  -4  -6    0.02    0.51 
  -4  -4  -6    2.78    0.75 
  -4  -4  -6    1.84    0.79 
  -4  -4  -6    1.32    0.77 
  -4  -4  -6    0.28    0.54 
  -4  -4  -6    1.78    0.60 
  -4  -4  -6    1.60    0.57 
  -4  -4  -6    2.79    0.70 
  -4  -4  -6    3.09    0.58 
  -4  -4  -7    0.61    0.49 
  -4  -4  -7    0.30    0.56 
  -4  -4  -7    0.60    0.59 
  -4  -4  -7   -0.06    0.63 
  -4  -4  -7   -0.02    0.48 
  -4  -4  -7   -0.12    0.73 
  -4  -4  -7    0.06    0.73 
  -4  -4  -7    0.16    0.61 
  -4  -4  -7    0.61    0.64 
  -4  -4  -8    4.28    0.85 
  -4  -4  -8    5.18    0.91 
  -4  -4  -8    7.05    0.88 
  -4  -4  -8    6.33    0.74 
  -4  -4  -8    6.13    0.71 
  -4  -4  -8    5.10    0.60 
  -4  -4  -9    0.01    0.60 
  -4  -4  -9    0.02    0.41 
  -4  -4 -10   -0.10    0.49 
  -4  -5   9   -0.06    0.15 
  -4  -5   7   -0.07    0.93 
  -4  -5   7    1.11    1.14 
  -4  -5   7   -0.05    0.27 
  -4  -5   7    0.35    0.28 
  -4  -5   6    0.28    0.21 
  -4  -5   6    0.38    1.30 
  -4  -5   6    0.29    0.32 
  -4  -5   6    0.44    0.34 
  -4  -5   5    0.04    0.24 
  -4  -5   5    0.08    0.37 
  -4  -5   5    0.07    0.37 
  -4  -5   5   -0.03    0.22 
  -4  -5   5   -0.14    1.45 
  -4  -5   4   -0.02    0.33 
  -4  -5   4    0.01    0.26 
  -4  -5   4    0.21    0.44 
  -4  -5   4    0.62    0.41 
  -4  -5   4    0.70    0.42 
  -4  -5   4    0.19    0.24 
  -4  -5   3    3.42    0.39 
  -4  -5   3    2.91    0.32 
  -4  -5   3    2.28    0.33 
  -4  -5   3    2.81    0.29 
  -4  -5   3    2.66    0.28 
  -4  -5   3    2.77    0.55 
  -4  -5   3    0.03    0.25 
  -4  -5   3    0.83    0.88 
  -4  -5   3    4.08    0.64 
  -4  -5   3    3.89    0.51 
  -4  -5   3    2.64    0.49 
  -4  -5   2    8.19    0.42 
  -4  -5   2    8.45    0.45 
  -4  -5   2    6.56    0.43 
  -4  -5   2    9.96    1.01 
  -4  -5   2    8.80    0.84 
  -4  -5   2    7.83    0.74 
  -4  -5   2    6.29    0.61 
  -4  -5   2    8.97    0.64 
  -4  -5   2    8.05    0.49 
  -4  -5   1   -0.40    0.67 
  -4  -5   1   -0.17    0.27 
  -4  -5   1   -0.24    0.30 
  -4  -5   1   -0.20    0.73 
  -4  -5   1    0.04    0.58 
  -4  -5   1   -0.06    1.37 
  -4  -5   1    0.18    0.94 
  -4  -5   1   -0.03    0.43 
  -4  -5   1    0.03    0.41 
  -4  -5   1   -0.60    0.43 
  -4  -5   1   -0.42    0.50 
  -4  -5   1   -0.44    0.52 
  -4  -5   0    0.09    0.26 
  -4  -5   0    0.21    0.29 
  -4  -5   0    0.09    0.26 
  -4  -5   0   -0.13    0.61 
  -4  -5   0    0.19    0.75 
  -4  -5   0    0.05    0.41 
  -4  -5   0   -0.05    0.45 
  -4  -5   0    0.16    0.45 
  -4  -5   0   -0.41    0.67 
  -4  -5   0   -0.27    0.41 
  -4  -5   0   -0.38    0.56 
  -4  -5   0   -0.33    0.56 
  -4  -5  -1    2.73    0.62 
  -4  -5  -1    4.68    0.65 
  -4  -5  -1    4.13    0.52 
  -4  -5  -1    4.89    0.40 
  -4  -5  -1    3.80    0.47 
  -4  -5  -1    4.41    0.37 
  -4  -5  -1    4.11    0.96 
  -4  -5  -1    2.52    0.86 
  -4  -5  -1    4.44    0.70 
  -4  -5  -1    4.74    0.65 
  -4  -5  -1    5.81    0.82 
  -4  -5  -2    2.38    0.42 
  -4  -5  -2    5.51    0.49 
  -4  -5  -2    0.52    0.40 
  -4  -5  -2    6.03    0.37 
  -4  -5  -2    4.42    0.98 
  -4  -5  -2    3.86    0.89 
  -4  -5  -2    4.87    0.67 
  -4  -5  -2    4.32    0.73 
  -4  -5  -2    5.68    0.66 
  -4  -5  -2    5.89    0.67 
  -4  -5  -2    3.14    0.63 
  -4  -5  -2    4.94    0.54 
  -4  -5  -2    5.79    0.80 
  -4  -5  -3   -0.04    0.29 
  -4  -5  -3    0.14    0.39 
  -4  -5  -3    0.01    0.32 
  -4  -5  -3    0.11    0.66 
  -4  -5  -3    0.29    0.89 
  -4  -5  -3   -0.32    0.52 
  -4  -5  -3   -0.47    0.60 
  -4  -5  -3   -0.21    0.55 
  -4  -5  -3    0.11    0.34 
  -4  -5  -4    0.69    0.35 
  -4  -5  -4    0.75    0.40 
  -4  -5  -4    0.05    0.32 
  -4  -5  -4    0.48    0.30 
  -4  -5  -4    0.03    0.85 
  -4  -5  -4    0.25    0.59 
  -4  -5  -4    0.27    0.40 
  -4  -5  -4    0.31    0.56 
  -4  -5  -4    0.37    0.44 
  -4  -5  -4    0.10    0.46 
  -4  -5  -4    0.18    0.44 
  -4  -5  -4    0.36    0.53 
  -4  -5  -5    6.72    0.44 
  -4  -5  -5    5.63    0.40 
  -4  -5  -5    2.05    0.88 
  -4  -5  -5    2.79    0.67 
  -4  -5  -5    3.68    0.56 
  -4  -5  -5    3.70    0.56 
  -4  -5  -5    0.29    0.61 
  -4  -5  -5    7.90    0.67 
  -4  -5  -5    3.43    0.62 
  -4  -5  -6    0.07    0.59 
  -4  -5  -6   -0.05    0.46 
  -4  -5  -6   -0.40    0.48 
  -4  -5  -6   -0.01    0.47 
  -4  -5  -6    0.03    0.56 
  -4  -5  -6    0.01    0.32 
  -4  -5  -6    0.19    0.34 
  -4  -5  -6   -0.10    0.43 
  -4  -5  -7   17.46    0.72 
  -4  -5  -7   16.11    1.15 
  -4  -5  -7   17.65    1.13 
  -4  -5  -7   11.59    0.78 
  -4  -5  -7   11.15    0.76 
  -4  -5  -7   13.55    0.75 
  -4  -5  -8    0.04    0.56 
  -4  -5  -8   -0.15    0.54 
  -4  -5  -8   -0.13    0.40 
  -4  -5  -8   -0.03    0.48 
  -4  -5  -8   -0.37    0.50 
  -4  -5  -8   -0.10    0.42 
  -4  -5  -9   -0.11    0.38 
  -4  -5  -9   -0.28    0.48 
  -4  -5  -9   -0.46    0.46 
  -4  -5  -9    0.01    0.50 
  -4  -6   8    0.11    0.17 
  -4  -6   7    0.21    0.91 
  -4  -6   6   -0.02    0.83 
  -4  -6   6    0.31    1.05 
  -4  -6   5    0.83    1.27 
  -4  -6   5    0.15    0.27 
  -4  -6   4    0.43    0.54 
  -4  -6   4    0.05    0.19 
  -4  -6   4    0.17    0.28 
  -4  -6   3    0.07    0.21 
  -4  -6   3    2.36    0.88 
  -4  -6   3    0.73    0.62 
  -4  -6   3    2.73    0.51 
  -4  -6   3    0.07    0.32 
  -4  -6   3    2.88    0.31 
  -4  -6   3    3.13    0.29 
  -4  -6   3    2.95    0.36 
  -4  -6   2    1.43    0.56 
  -4  -6   2    1.35    0.67 
  -4  -6   2   -0.02    0.23 
  -4  -6   2    1.25    0.46 
  -4  -6   2    0.03    0.30 
  -4  -6   2    0.04    0.28 
  -4  -6   2    0.89    0.35 
  -4  -6   1    3.23    0.33 
  -4  -6   1    3.63    0.35 
  -4  -6   1    3.10    0.35 
  -4  -6   1    3.56    0.70 
  -4  -6   1    3.94    0.85 
  -4  -6   1    2.97    0.57 
  -4  -6   1    2.56    0.42 
  -4  -6   1    4.88    0.82 
  -4  -6   0    3.38    0.36 
  -4  -6   0    2.91    0.31 
  -4  -6   0    2.90    0.36 
  -4  -6   0    3.13    0.71 
  -4  -6   0    3.34    0.87 
  -4  -6   0    1.22    0.39 
  -4  -6   0    2.69    0.46 
  -4  -6   0    3.29    0.76 
  -4  -6  -1   -0.46    0.50 
  -4  -6  -1    0.72    0.42 
  -4  -6  -1    0.37    0.35 
  -4  -6  -1    0.08    0.80 
  -4  -6  -1   -0.04    0.33 
  -4  -6  -1    0.56    0.44 
  -4  -6  -1    0.18    0.47 
  -4  -6  -1   -0.12    0.62 
  -4  -6  -2    0.69    0.42 
  -4  -6  -2    0.81    0.37 
  -4  -6  -2    0.94    0.29 
  -4  -6  -2    0.14    0.33 
  -4  -6  -2    0.84    0.81 
  -4  -6  -2    0.54    0.65 
  -4  -6  -2    0.28    0.34 
  -4  -6  -2    0.89    0.48 
  -4  -6  -2    0.77    0.47 
  -4  -6  -2    0.40    0.49 
  -4  -6  -2    1.34    0.61 
  -4  -6  -3   -0.36    0.43 
  -4  -6  -3   -0.03    0.31 
  -4  -6  -3    0.14    0.35 
  -4  -6  -3   -0.13    0.29 
  -4  -6  -3   -0.40    0.82 
  -4  -6  -3   -0.25    0.59 
  -4  -6  -3   -0.05    0.33 
  -4  -6  -3    0.22    0.47 
  -4  -6  -3    0.12    5.86 
  -4  -6  -3    0.05    0.50 
  -4  -6  -4   -0.02    0.55 
  -4  -6  -4    0.95    0.38 
  -4  -6  -4    0.72    0.32 
  -4  -6  -4    0.12    0.34 
  -4  -6  -4    0.67    0.50 
  -4  -6  -4    0.49    0.55 
  -4  -6  -4    0.54    0.36 
  -4  -6  -5   -0.12    0.48 
  -4  -6  -5   -0.27    0.48 
  -4  -6  -5    0.17    0.32 
  -4  -6  -5    0.54    0.31 
  -4  -6  -5   -0.15    0.41 
  -4  -6  -5   -0.02    0.42 
  -4  -6  -5    0.01    0.41 
  -4  -6  -6    4.32    0.71 
  -4  -6  -6    3.54    0.38 
  -4  -6  -6    2.40    0.36 
  -4  -6  -6    2.29    0.48 
  -4  -6  -6    1.91    0.49 
  -4  -6  -6    3.29    0.52 
  -4  -6  -7    0.25    0.51 
  -4  -6  -7   -0.37    0.36 
  -4  -6  -7    0.05    0.43 
  -4  -6  -7   -0.41    0.43 
  -4  -6  -7   -0.01    0.40 
  -4  -6  -8    0.10    0.33 
  -4  -6  -8   -0.14    0.41 
  -4  -6  -8   -0.27    0.41 
  -4  -6  -8   -0.14    0.37 
  -4  -7   6    0.30    0.83 
  -4  -7   5    0.16    0.24 
  -4  -7   5    1.01    1.03 
  -4  -7   4    1.00    0.27 
  -4  -7   4    0.12    0.24 
  -4  -7   3    4.00    0.34 
  -4  -7   3    3.01    0.47 
  -4  -7   2    0.36    0.29 
  -4  -7   2    0.06    0.36 
  -4  -7   2    0.02    0.23 
  -4  -7   2    0.27    0.25 
  -4  -7   2    0.00    0.25 
  -4  -7   1    0.07    0.38 
  -4  -7   1    0.00    0.25 
  -4  -7   1    0.22    0.26 
  -4  -7   1   -0.04    0.23 
  -4  -7   0   -0.02    0.28 
  -4  -7   0    0.02    0.25 
  -4  -7   0    0.80    0.30 
  -4  -7   0   -0.04    0.74 
  -4  -7   0    0.30    0.55 
  -4  -7   0    0.15    0.31 
  -4  -7   0    0.26    0.34 
  -4  -7  -1    2.21    0.48 
  -4  -7  -1    3.03    0.54 
  -4  -7  -1    2.71    0.62 
  -4  -7  -1    1.94    0.41 
  -4  -7  -1    0.96    0.36 
  -4  -7  -2    1.36    0.41 
  -4  -7  -2    0.15    0.30 
  -4  -7  -2    1.22    0.28 
  -4  -7  -2    1.03    0.34 
  -4  -7  -2    0.95    0.34 
  -4  -7  -2    1.06    0.43 
  -4  -7  -2    1.38    0.51 
  -4  -7  -2    1.37    0.47 
  -4  -7  -2    1.22    0.54 
  -4  -7  -3    0.03    0.37 
  -4  -7  -3    0.24    0.34 
  -4  -7  -3   -0.16    0.26 
  -4  -7  -3    0.00    0.28 
  -4  -7  -3   -0.22    0.50 
  -4  -7  -3    0.08    0.40 
  -4  -7  -3    0.31    0.44 
  -4  -7  -3    0.23    0.32 
  -4  -7  -3    0.16    0.43 
  -4  -7  -4    0.02    0.42 
  -4  -7  -4   -0.13    0.29 
  -4  -7  -4    0.04    0.33 
  -4  -7  -4   -0.21    0.28 
  -4  -7  -4   -0.13    0.41 
  -4  -7  -5    0.97    0.48 
  -4  -7  -5    0.27    0.42 
  -4  -7  -5    0.42    0.40 
  -4  -7  -5    0.22    0.28 
  -4  -7  -5    0.39    0.34 
  -4  -7  -5    0.46    0.30 
  -4  -7  -6    0.97    0.38 
  -4  -7  -7    1.03    0.37 
  -4  -8   5    0.21    0.69 
  -4  -8   4    2.26    0.22 
  -4  -8   4    3.10    0.24 
  -4  -8   3    0.68    0.22 
  -4  -8   2    0.90    0.34 
  -4  -8   2    0.81    0.22 
  -4  -8   2    0.12    0.21 
  -4  -8   2    1.17    0.57 
  -4  -8   1    0.05    0.22 
  -4  -8   1    0.08    0.21 
  -4  -8   0   -0.02    0.25 
  -4  -8   0    0.00    0.23 
  -4  -8   0    0.06    0.21 
  -4  -8  -1    0.71    0.37 
  -4  -8  -1    0.76    0.28 
  -4  -8  -1    0.13    0.56 
  -4  -8  -1    0.18    0.29 
  -4  -8  -2    0.01    0.59 
  -4  -8  -2    0.45    0.28 
  -4  -8  -2   -0.01    0.29 
  -4  -8  -2    0.33    0.23 
  -4  -8  -2    0.13    0.21 
  -4  -8  -3    0.16    0.28 
  -4  -8  -3    0.01    0.31 
  -4  -8  -3    0.42    0.25 
  -4  -8  -3    0.32    0.23 
  -4  -8  -4   -0.13    0.22 
  -4  -8  -4   -0.42    0.29 
  -4  -8  -4   -0.08    0.24 
  -4  -8  -5    0.36    0.29 
  -4  -8  -5   -0.37    0.29 
  -4  -9   1    0.01    0.16 
  -4  -9   0    0.00    0.15 
  -4  -9   0   -0.02    0.14 
  -4  -9   0    0.14    0.18 
  -4  -9  -1    0.13    0.18 
  -4  -9  -2    0.45    0.17 
  -4  -9  -2    0.04    0.16 
  -3   9   1   -0.04    0.25 
  -3   9   0    0.00    0.13 
  -3   9  -1    0.02    0.27 
  -3   9  -2    0.07    0.13 
  -3   8   5    0.05    0.24 
  -3   8   4    0.18    0.47 
  -3   8   4    0.60    0.40 
  -3   8   3    0.28    0.48 
  -3   8   2    0.70    0.67 
  -3   8   2    0.86    0.52 
  -3   8   2    0.65    0.57 
  -3   8   1    0.67    0.68 
  -3   8   1    0.18    0.53 
  -3   8   1    0.52    0.60 
  -3   8   0   -0.15    0.65 
  -3   8   0    0.29    0.54 
  -3   8  -1    0.34    0.61 
  -3   8  -1   -0.09    0.52 
  -3   8  -1    0.36    0.57 
  -3   8  -2    0.40    0.58 
  -3   8  -2    0.39    0.56 
  -3   8  -3    0.34    0.61 
  -3   8  -3   -0.27    0.51 
  -3   8  -3    1.44    0.34 
  -3   8  -4    0.02    0.24 
  -3   8  -5   -0.19    0.17 
  -3   7   6    0.32    0.42 
  -3   7   5    0.31    0.64 
  -3   7   5    0.02    0.60 
  -3   7   5    0.79    0.54 
  -3   7   4    0.23    0.35 
  -3   7   4    0.36    0.34 
  -3   7   4    1.45    0.71 
  -3   7   4    1.20    0.84 
  -3   7   4    1.49    0.63 
  -3   7   3    0.23    0.37 
  -3   7   3    0.17    0.36 
  -3   7   3    1.47    0.69 
  -3   7   3    1.28    0.75 
  -3   7   2    0.10    0.40 
  -3   7   2    0.05    0.39 
  -3   7   2    0.91    0.75 
  -3   7   2    0.76    0.71 
  -3   7   1    0.28    0.42 
  -3   7   1    0.03    0.42 
  -3   7   1    0.74    0.78 
  -3   7   1    0.54    0.95 
  -3   7   1    0.41    0.75 
  -3   7   0   11.29    0.97 
  -3   7   0    6.49    1.11 
  -3   7  -1    3.94    0.49 
  -3   7  -1    5.36    0.99 
  -3   7  -1    5.42    0.88 
  -3   7  -2    0.42    0.38 
  -3   7  -2    0.72    0.74 
  -3   7  -2    1.49    0.83 
  -3   7  -2    0.48    0.77 
  -3   7  -2    0.82    0.85 
  -3   7  -3    0.33    0.33 
  -3   7  -3   -0.71    0.78 
  -3   7  -3   -0.15    0.75 
  -3   7  -3    0.26    0.70 
  -3   7  -3   -0.05    0.80 
  -3   7  -4   -0.61    0.70 
  -3   7  -4   -0.04    0.37 
  -3   7  -5    0.10    0.52 
  -3   7  -5    0.12    0.48 
  -3   7  -5    0.49    0.33 
  -3   7  -6    0.24    0.63 
  -3   7  -6   -0.12    0.40 
  -3   7  -6   -0.34    0.42 
  -3   7  -6    0.08    0.24 
  -3   7  -7    0.16    0.48 
  -3   6   8   -0.47    0.33 
  -3   6   8    0.06    0.31 
  -3   6   7    0.56    0.53 
  -3   6   7    1.07    0.59 
  -3   6   6    0.99    0.65 
  -3   6   6    0.62    0.36 
  -3   6   6    0.65    0.37 
  -3   6   5    3.05    0.53 
  -3   6   5    2.58    0.51 
  -3   6   4    0.31    0.77 
  -3   6   4    0.41    0.85 
  -3   6   4    0.83    0.43 
  -3   6   4    0.71    0.42 
  -3   6   3    2.01    0.83 
  -3   6   3    3.51    0.91 
  -3   6   3    1.99    0.52 
  -3   6   3    2.02    0.51 
  -3   6   2    1.82    0.87 
  -3   6   2    2.80    0.91 
  -3   6   2    1.19    0.56 
  -3   6   2    1.46    0.55 
  -3   6   1    1.69    0.59 
  -3   6   1    1.30    0.57 
  -3   6   1    1.54    0.50 
  -3   6   1    1.18    0.46 
  -3   6   1    3.43    0.92 
  -3   6   1    3.34    0.93 
  -3   6   0    3.79    0.99 
  -3   6   0    2.56    0.97 
  -3   6   0    4.55    0.96 
  -3   6   0    1.05    0.65 
  -3   6   0    1.85    0.67 
  -3   6   0    2.38    0.37 
  -3   6   0    1.34    0.47 
  -3   6   0    1.35    0.43 
  -3   6   0    2.36    0.52 
  -3   6  -1   29.30    0.76 
  -3   6  -1   25.90    0.73 
  -3   6  -1   19.07    1.23 
  -3   6  -1   19.05    1.22 
  -3   6  -1   20.81    1.43 
  -3   6  -1   26.69    1.41 
  -3   6  -1   35.19    1.51 
  -3   6  -1   26.30    0.96 
  -3   6  -2    3.08    1.05 
  -3   6  -2    4.59    1.05 
  -3   6  -2    5.00    1.05 
  -3   6  -2    2.93    0.96 
  -3   6  -2    3.95    0.55 
  -3   6  -3    2.84    0.94 
  -3   6  -3    1.10    1.00 
  -3   6  -3    2.78    1.04 
  -3   6  -3    3.75    0.98 
  -3   6  -3    2.54    1.05 
  -3   6  -3    2.12    1.16 
  -3   6  -3    3.59    0.51 
  -3   6  -4   -1.13    1.00 
  -3   6  -4    0.62    0.85 
  -3   6  -4    0.10    0.78 
  -3   6  -4    0.30    1.00 
  -3   6  -4    0.20    0.83 
  -3   6  -4    0.88    1.02 
  -3   6  -4    0.07    0.35 
  -3   6  -5    0.69    0.96 
  -3   6  -5    0.09    0.72 
  -3   6  -5    0.02    0.94 
  -3   6  -5    0.89    0.79 
  -3   6  -5    0.38    0.42 
  -3   6  -5   -0.32    0.85 
  -3   6  -5    0.10    0.78 
  -3   6  -6    2.38    0.70 
  -3   6  -6    1.03    0.94 
  -3   6  -6    1.02    0.90 
  -3   6  -6    2.54    0.65 
  -3   6  -6   -0.13    0.74 
  -3   6  -6    1.88    0.41 
  -3   6  -7    0.30    0.78 
  -3   6  -7    0.03    0.67 
  -3   6  -7    0.14    0.49 
  -3   6  -7    0.08    0.51 
  -3   6  -8   -0.05    0.47 
  -3   5   9    0.45    0.34 
  -3   5   8    1.52    0.48 
  -3   5   8    1.40    0.55 
  -3   5   8    0.46    0.57 
  -3   5   7    4.16    0.54 
  -3   5   7    4.84    0.57 
  -3   5   7    5.91    0.79 
  -3   5   7    4.06    0.85 
  -3   5   7    6.32    0.65 
  -3   5   6   11.03    0.85 
  -3   5   6    9.33    0.80 
  -3   5   6   11.51    1.01 
  -3   5   6    8.57    1.14 
  -3   5   6   12.64    0.80 
  -3   5   5    0.84    0.52 
  -3   5   5    1.00    0.52 
  -3   5   5    1.25    0.79 
  -3   5   5    2.36    0.70 
  -3   5   4    9.03    0.80 
  -3   5   4    8.51    0.79 
  -3   5   4   10.82    0.92 
  -3   5   4   13.54    1.11 
  -3   5   4   13.70    0.85 
  -3   5   3   -0.22    0.48 
  -3   5   3   -0.27    0.49 
  -3   5   3   -0.42    0.41 
  -3   5   3    1.63    0.76 
  -3   5   3    1.58    0.69 
  -3   5   2    0.29    0.50 
  -3   5   2   -0.11    0.50 
  -3   5   2   -0.08    0.42 
  -3   5   2   -0.18    0.42 
  -3   5   2   -0.01    0.45 
  -3   5   2   -0.67    0.88 
  -3   5   2    0.21    0.84 
  -3   5   1   -0.70    0.42 
  -3   5   1   -0.04    0.39 
  -3   5   1    0.28    6.11 
  -3   5   1    0.46    6.01 
  -3   5   1   -0.25    0.39 
  -3   5   1    0.04    0.40 
  -3   5   1   -0.47    0.86 
  -3   5   1   -0.19    0.79 
  -3   5   0  112.53    2.74 
  -3   5   0  112.37    2.69 
  -3   5   0  111.34    2.59 
  -3   5   0   84.40    2.55 
  -3   5   0   81.82    2.52 
  -3   5   0  112.87    1.96 
  -3   5   0  106.66    1.93 
  -3   5   0   96.53    2.15 
  -3   5   0  104.55    2.13 
  -3   5   0   92.48    2.11 
  -3   5  -1   93.02    1.77 
  -3   5  -1  102.85    1.80 
  -3   5  -1   85.60    2.60 
  -3   5  -1   80.59    2.53 
  -3   5  -1   82.97    2.54 
  -3   5  -1   81.24    2.52 
  -3   5  -1   94.37    2.52 
  -3   5  -1  105.41    2.49 
  -3   5  -1   99.12    2.03 
  -3   5  -2   11.23    1.11 
  -3   5  -2   10.22    1.06 
  -3   5  -2    7.94    1.34 
  -3   5  -2   10.16    1.08 
  -3   5  -2   11.41    1.16 
  -3   5  -2   10.87    0.67 
  -3   5  -2   12.40    1.11 
  -3   5  -2    9.47    1.15 
  -3   5  -2   10.06    1.19 
  -3   5  -3    8.45    1.43 
  -3   5  -3    9.55    1.13 
  -3   5  -3   12.51    1.21 
  -3   5  -3    8.87    0.61 
  -3   5  -3    8.17    1.05 
  -3   5  -3    6.25    1.09 
  -3   5  -3    5.49    1.22 
  -3   5  -3    4.19    1.13 
  -3   5  -4    1.69    1.29 
  -3   5  -4    2.00    1.04 
  -3   5  -4    2.09    0.96 
  -3   5  -4    1.41    1.03 
  -3   5  -4    1.28    0.68 
  -3   5  -4    0.96    0.95 
  -3   5  -4   -0.11    1.06 
  -3   5  -4   -0.67    1.16 
  -3   5  -4    1.84    0.43 
  -3   5  -4    1.44    0.84 
  -3   5  -4    1.11    0.89 
  -3   5  -5    1.04    0.95 
  -3   5  -5    0.74    0.89 
  -3   5  -5    0.03    1.13 
  -3   5  -5    0.29    0.90 
  -3   5  -5    0.37    0.83 
  -3   5  -5   -0.20    0.84 
  -3   5  -5   -0.14    0.97 
  -3   5  -5   -0.03    0.85 
  -3   5  -5    0.19    0.45 
  -3   5  -5    0.63    1.03 
  -3   5  -6    0.48    1.09 
  -3   5  -6    0.84    1.02 
  -3   5  -6   -0.02    0.87 
  -3   5  -6   -0.44    0.83 
  -3   5  -6    0.48    0.79 
  -3   5  -6    0.03    0.85 
  -3   5  -6   -0.17    0.73 
  -3   5  -6    0.10    0.44 
  -3   5  -6   -0.30    0.85 
  -3   5  -6   -0.07    0.97 
  -3   5  -7    2.86    0.78 
  -3   5  -7    3.70    1.17 
  -3   5  -7    4.94    0.76 
  -3   5  -7    4.46    1.01 
  -3   5  -7    4.00    0.80 
  -3   5  -7    5.59    0.86 
  -3   5  -8    0.85    0.55 
  -3   5  -8    0.86    0.52 
  -3   5  -8    0.71    0.87 
  -3   5  -8    0.56    0.77 
  -3   5  -8    0.98    0.58 
  -3   5  -8    0.84    0.61 
  -3   5  -9   -0.01    0.50 
  -3   5  -9   -0.68    0.70 
  -3   5  -9   -0.10    0.41 
  -3   5  -9   -0.34    0.45 
  -3   5 -10   -0.26    0.40 
  -3   4   9    0.83    0.43 
  -3   4   8   -0.01    0.56 
  -3   4   8    0.29    0.69 
  -3   4   7   -0.69    0.63 
  -3   4   7    0.97    0.52 
  -3   4   6   -0.04    0.64 
  -3   4   6    0.53    0.53 
  -3   4   6    0.20    0.50 
  -3   4   6   -0.13    0.51 
  -3   4   5    7.63    0.82 
  -3   4   5    6.60    0.75 
  -3   4   5    5.88    0.74 
  -3   4   5    6.17    0.74 
  -3   4   4    1.58    0.49 
  -3   4   4    2.68    0.55 
  -3   4   4    0.76    0.51 
  -3   4   4    0.99    0.54 
  -3   4   3    0.07    0.38 
  -3   4   3    0.66    0.45 
  -3   4   3    0.31    0.48 
  -3   4   3    0.05    0.48 
  -3   4   2    0.51    0.35 
  -3   4   2   -0.09    0.46 
  -3   4   2    0.53    0.46 
  -3   4   2    0.72    0.35 
  -3   4   2    0.47    0.36 
  -3   4   2    0.65    0.41 
  -3   4   2    0.05    1.29 
  -3   4   1   17.79    0.65 
  -3   4   1   13.54    0.88 
  -3   4   1   19.63    0.56 
  -3   4   1   22.69    0.78 
  -3   4   1   21.69    0.75 
  -3   4   1   17.35    0.96 
  -3   4   1   18.50    0.99 
  -3   4   0    0.65    0.31 
  -3   4   0    0.52    0.32 
  -3   4   0    0.58    0.21 
  -3   4   0    0.64    0.21 
  -3   4   0    0.76    0.55 
  -3   4   0    0.33    0.52 
  -3   4   0    0.95    0.50 
  -3   4   0    1.20    0.51 
  -3   4   0    0.53    0.29 
  -3   4   0    0.47    0.27 
  -3   4   0    0.89    0.72 
  -3   4   0    0.93    0.69 
  -3   4   0    2.57    0.72 
  -3   4  -1    1.27    0.22 
  -3   4  -1    1.18    0.21 
  -3   4  -1    1.61    0.60 
  -3   4  -1    1.09    0.56 
  -3   4  -1    1.43    0.82 
  -3   4  -1    2.20    0.79 
  -3   4  -1    1.13    0.64 
  -3   4  -1    0.70    0.57 
  -3   4  -1    0.68    0.72 
  -3   4  -1    1.28    0.33 
  -3   4  -2    4.48    0.78 
  -3   4  -2    4.39    0.76 
  -3   4  -2    1.75    0.96 
  -3   4  -2    2.38    0.89 
  -3   4  -2    3.36    0.77 
  -3   4  -2    3.44    0.93 
  -3   4  -2    4.45    0.82 
  -3   4  -2    4.05    0.76 
  -3   4  -2    4.69    0.95 
  -3   4  -2    3.37    0.41 
  -3   4  -3    3.77    1.21 
  -3   4  -3    8.01    1.03 
  -3   4  -3    6.26    0.92 
  -3   4  -3    5.10    1.22 
  -3   4  -3    5.82    1.09 
  -3   4  -3    5.85    0.83 
  -3   4  -3    3.85    0.93 
  -3   4  -3    3.20    1.02 
  -3   4  -3    3.33    1.10 
  -3   4  -3    4.36    0.46 
  -3   4  -4    0.99    0.95 
  -3   4  -4    0.92    1.02 
  -3   4  -4    1.67    1.26 
  -3   4  -4    0.85    0.37 
  -3   4  -4   -0.22    1.23 
  -3   4  -4   -1.58    1.13 
  -3   4  -4    0.69    0.96 
  -3   4  -4    0.59    0.92 
  -3   4  -4    0.91    1.10 
  -3   4  -5    0.53    1.39 
  -3   4  -5    0.99    1.02 
  -3   4  -5    1.82    1.11 
  -3   4  -5    0.18    0.91 
  -3   4  -5    1.81    0.53 
  -3   4  -5    0.22    1.09 
  -3   4  -5    1.59    0.92 
  -3   4  -5    1.12    1.21 
  -3   4  -6    3.26    1.08 
  -3   4  -6    1.84    1.36 
  -3   4  -6    2.76    0.97 
  -3   4  -6    3.97    0.59 
  -3   4  -6    1.08    0.95 
  -3   4  -6   -0.46    2.01 
  -3   4  -6    2.86    0.93 
  -3   4  -6    3.19    1.23 
  -3   4  -7    8.03    1.42 
  -3   4  -7    2.57    1.13 
  -3   4  -7    3.55    1.00 
  -3   4  -7    4.46    0.94 
  -3   4  -7    0.16    1.90 
  -3   4  -7    5.45    1.23 
  -3   4  -8    1.27    1.02 
  -3   4  -8   -0.82    0.74 
  -3   4  -8    1.25    1.01 
  -3   4  -8    0.19    0.67 
  -3   4  -8    1.35    0.82 
  -3   4  -8    1.89    0.85 
  -3   4  -8    1.39    0.79 
  -3   4  -9    0.19    0.70 
  -3   4  -9    0.74    0.94 
  -3   4  -9    1.62    0.62 
  -3   4  -9    1.52    0.66 
  -3   4 -10   -0.87    0.73 
  -3   4 -10   -0.02    0.40 
  -3   4 -10    0.14    0.43 
  -3   3  10    0.10    0.34 
  -3   3  10    0.13    0.41 
  -3   3   9   -0.40    0.52 
  -3   3   9   -0.88    0.65 
  -3   3   9    0.65    0.40 
  -3   3   9    0.10    0.38 
  -3   3   8   -0.02    0.78 
  -3   3   8    0.39    0.47 
  -3   3   7    2.15    0.56 
  -3   3   6    1.33    0.52 
  -3   3   6    0.12    0.48 
  -3   3   5    3.15    0.81 
  -3   3   5    6.69    0.73 
  -3   3   4    2.84    0.47 
  -3   3   4    1.86    0.48 
  -3   3   3    7.54    0.81 
  -3   3   3    8.78    0.69 
  -3   3   2   30.19    1.11 
  -3   3   1    1.95    0.29 
  -3   3   1    1.93    0.30 
  -3   3   1    1.50    0.33 
  -3   3   0    0.46    0.16 
  -3   3   0    0.27    0.16 
  -3   3   0    0.44    0.25 
  -3   3   0    0.26    0.24 
  -3   3   0    0.27    0.21 
  -3   3   0    0.34    0.23 
  -3   3   0    0.01    0.42 
  -3   3   0    0.02    0.46 
  -3   3  -1   28.66    1.04 
  -3   3  -1   31.77    1.31 
  -3   3  -1   29.02    1.08 
  -3   3  -1   26.69    0.74 
  -3   3  -1   31.41    1.06 
  -3   3  -2  104.40    2.23 
  -3   3  -2  116.46    2.70 
  -3   3  -2  118.52    2.40 
  -3   3  -2   76.62    1.71 
  -3   3  -2  100.11    2.21 
  -3   3  -2   99.59    2.19 
  -3   3  -2   82.24    2.54 
  -3   3  -3   37.34    1.38 
  -3   3  -3   34.30    1.95 
  -3   3  -3   28.55    1.61 
  -3   3  -3   38.65    1.38 
  -3   3  -3   24.66    1.34 
  -3   3  -3   42.24    1.49 
  -3   3  -3   44.92    1.81 
  -3   3  -3   23.85    1.25 
  -3   3  -4   -0.02    0.70 
  -3   3  -4   -0.10    0.85 
  -3   3  -4   -0.42    1.01 
  -3   3  -4   -1.17    1.07 
  -3   3  -4    0.32    0.69 
  -3   3  -4    0.39    0.94 
  -3   3  -4    0.53    0.71 
  -3   3  -4   -0.10    1.16 
  -3   3  -4    0.06    0.79 
  -3   3  -4    0.51    0.89 
  -3   3  -5   -1.16    1.09 
  -3   3  -5    0.07    0.43 
  -3   3  -5   -0.05    0.84 
  -3   3  -5   -0.24    1.97 
  -3   3  -5    0.16    0.73 
  -3   3  -5   -0.04    0.99 
  -3   3  -5   -0.61    1.26 
  -3   3  -5    0.05    0.78 
  -3   3  -5   -0.38    0.89 
  -3   3  -5   -0.53    0.97 
  -3   3  -6   15.32    1.28 
  -3   3  -6    3.60    1.06 
  -3   3  -6    0.75    2.21 
  -3   3  -6    9.20    1.12 
  -3   3  -6   11.96    1.57 
  -3   3  -6   11.94    1.16 
  -3   3  -6    8.52    1.09 
  -3   3  -6   14.20    1.79 
  -3   3  -6   15.09    1.33 
  -3   3  -7   16.55    1.29 
  -3   3  -7    8.50    1.34 
  -3   3  -7   11.01    1.10 
  -3   3  -7   17.54    1.72 
  -3   3  -7   12.69    1.19 
  -3   3  -7   10.41    1.05 
  -3   3  -7   12.62    1.51 
  -3   3  -8    9.28    0.89 
  -3   3  -8   11.81    1.49 
  -3   3  -8    8.28    1.00 
  -3   3  -8    8.88    0.97 
  -3   3  -8    9.07    1.21 
  -3   3  -9    4.22    1.21 
  -3   3  -9    6.77    1.06 
  -3   3 -10   -0.69    0.93 
  -3   2  11   -0.12    0.22 
  -3   2  10   -0.11    0.50 
  -3   2  10    1.93    0.36 
  -3   2   9    1.42    0.49 
  -3   2   9    0.91    0.45 
  -3   2   9    1.73    0.77 
  -3   2   9    1.37    0.45 
  -3   2   8   -0.32    0.58 
  -3   2   8   -0.23    0.58 
  -3   2   8   -0.25    0.44 
  -3   2   8   -0.17    0.43 
  -3   2   8   -0.16    0.80 
  -3   2   8   -0.06    0.47 
  -3   2   7   27.73    1.44 
  -3   2   7   28.52    1.43 
  -3   2   7   28.80    0.90 
  -3   2   7   26.71    0.89 
  -3   2   7    9.48    1.79 
  -3   2   7   13.90    1.54 
  -3   2   7   36.14    1.55 
  -3   2   7   31.02    1.14 
  -3   2   6    7.12    0.88 
  -3   2   6    7.64    0.62 
  -3   2   6    6.90    0.78 
  -3   2   6    7.09    0.80 
  -3   2   6    5.73    0.52 
  -3   2   6    6.11    0.50 
  -3   2   6    5.97    0.73 
  -3   2   5    2.93    0.68 
  -3   2   5    2.00    0.53 
  -3   2   5    2.18    0.53 
  -3   2   5    1.65    0.47 
  -3   2   5    0.62    0.90 
  -3   2   5    3.12    0.73 
  -3   2   5    1.85    0.37 
  -3   2   5    2.11    0.38 
  -3   2   4    7.13    0.65 
  -3   2   4    8.41    0.70 
  -3   2   4    7.46    0.63 
  -3   2   4    6.24    0.40 
  -3   2   4    6.79    0.41 
  -3   2   3   23.19    0.91 
  -3   2   3   20.67    0.92 
  -3   2   3   20.70    0.92 
  -3   2   2   29.80    0.95 
  -3   2   2   28.94    1.07 
  -3   2   2   28.06    1.06 
  -3   2   1    1.01    0.28 
  -3   2   1    0.06    0.38 
  -3   2   1    0.08    0.40 
  -3   2   0   62.96    1.57 
  -3   2   0   65.25    1.60 
  -3   2   0   41.46    1.16 
  -3   2   0   28.57    1.02 
  -3   2   0   52.33    1.10 
  -3   2  -1    0.41    0.51 
  -3   2  -1    0.11    0.57 
  -3   2  -1    0.69    0.54 
  -3   2  -1    0.37    0.52 
  -3   2  -1   -0.60    0.49 
  -3   2  -1   -0.50    0.59 
  -3   2  -2   39.01    1.45 
  -3   2  -2   39.05    1.47 
  -3   2  -2   23.78    1.14 
  -3   2  -2   24.13    1.45 
  -3   2  -2   37.38    1.18 
  -3   2  -2   38.23    1.22 
  -3   2  -2   32.55    1.04 
  -3   2  -2   34.09    1.32 
  -3   2  -2   27.33    1.27 
  -3   2  -2   39.86    1.17 
  -3   2  -3    7.82    0.82 
  -3   2  -3    9.58    1.14 
  -3   2  -3   13.69    0.94 
  -3   2  -3    9.21    0.94 
  -3   2  -3   13.82    1.21 
  -3   2  -3   11.06    0.84 
  -3   2  -3   13.26    1.01 
  -3   2  -3   13.35    0.95 
  -3   2  -4   13.54    1.05 
  -3   2  -4   15.03    1.07 
  -3   2  -4   18.77    1.51 
  -3   2  -4   14.93    0.99 
  -3   2  -4   11.41    1.01 
  -3   2  -4   15.56    1.43 
  -3   2  -4   11.58    0.97 
  -3   2  -4   13.35    0.97 
  -3   2  -5    0.28    0.75 
  -3   2  -5    0.94    0.84 
  -3   2  -5    1.24    1.20 
  -3   2  -5    1.01    0.75 
  -3   2  -5    0.10    0.78 
  -3   2  -5    0.64    0.80 
  -3   2  -5    0.41    0.77 
  -3   2  -5   -0.07    1.01 
  -3   2  -5    1.04    0.99 
  -3   2  -5    0.58    1.03 
  -3   2  -5    0.86    0.72 
  -3   2  -5    0.64    0.71 
  -3   2  -6    2.58    0.85 
  -3   2  -6    2.82    0.89 
  -3   2  -6    0.52    0.89 
  -3   2  -6    1.72    0.89 
  -3   2  -6    4.56    1.33 
  -3   2  -6    2.60    0.94 
  -3   2  -6    1.13    2.07 
  -3   2  -6    2.05    0.82 
  -3   2  -6    1.90    0.83 
  -3   2  -6    1.67    1.12 
  -3   2  -6    1.99    1.09 
  -3   2  -6    1.48    1.11 
  -3   2  -7   18.53    1.84 
  -3   2  -7   16.63    1.56 
  -3   2  -7   21.86    1.44 
  -3   2  -7   19.36    1.24 
  -3   2  -7   16.20    1.66 
  -3   2  -7   17.44    1.15 
  -3   2  -7   15.40    1.25 
  -3   2  -7   16.99    1.81 
  -3   2  -7   14.27    1.22 
  -3   2  -7   15.46    1.23 
  -3   2  -8    7.65    1.34 
  -3   2  -8    3.78    0.83 
  -3   2  -8    5.05    0.90 
  -3   2  -8    4.68    1.35 
  -3   2  -8    4.88    0.97 
  -3   2  -8    4.15    1.01 
  -3   2  -8    5.64    1.00 
  -3   2  -8    4.82    0.98 
  -3   2  -8    4.53    0.94 
  -3   2  -9    1.75    0.82 
  -3   2  -9    2.61    0.98 
  -3   2  -9    1.92    1.23 
  -3   2  -9    2.16    0.83 
  -3   2  -9    2.08    0.79 
  -3   2 -10    3.04    1.14 
  -3   1  10    3.77    0.63 
  -3   1  10    3.34    0.41 
  -3   1  10    0.41    0.37 
  -3   1  10    0.26    0.36 
  -3   1   9    0.02    0.48 
  -3   1   9   -0.23    0.47 
  -3   1   9   -0.06    0.42 
  -3   1   9   -0.01    0.42 
  -3   1   9    0.43    0.71 
  -3   1   9    0.51    0.43 
  -3   1   9    0.16    0.79 
  -3   1   9    0.72    1.06 
  -3   1   8    4.42    0.72 
  -3   1   8    4.82    0.73 
  -3   1   8    0.45    0.56 
  -3   1   8    0.93    0.57 
  -3   1   8    6.87    0.93 
  -3   1   8    6.38    0.61 
  -3   1   8    1.29    1.01 
  -3   1   8    8.83    1.34 
  -3   1   7    7.18    0.80 
  -3   1   7    7.55    0.81 
  -3   1   7    6.40    0.58 
  -3   1   7    6.82    0.59 
  -3   1   7    9.36    0.94 
  -3   1   7    8.05    0.65 
  -3   1   7    5.13    1.14 
  -3   1   6    0.98    0.53 
  -3   1   6    0.20    0.43 
  -3   1   6    0.60    0.43 
  -3   1   6    1.26    0.67 
  -3   1   6    0.67    0.40 
  -3   1   6    1.36    0.71 
  -3   1   6    0.86    0.93 
  -3   1   5    5.05    0.58 
  -3   1   5    5.01    0.57 
  -3   1   5    4.84    0.43 
  -3   1   5    4.51    0.41 
  -3   1   5    5.31    0.54 
  -3   1   5    4.78    0.58 
  -3   1   4   36.01    1.25 
  -3   1   4   37.08    1.25 
  -3   1   4   37.23    0.88 
  -3   1   4   36.02    0.87 
  -3   1   4   35.79    1.22 
  -3   1   3    7.33    0.57 
  -3   1   3    7.93    0.60 
  -3   1   3    7.27    0.42 
  -3   1   3    5.94    0.40 
  -3   1   3    6.82    0.56 
  -3   1   2   20.90    0.85 
  -3   1   2   21.27    0.84 
  -3   1   2   21.40    0.78 
  -3   1   1   50.29    1.37 
  -3   1   1   49.99    1.37 
  -3   1   1   48.68    1.17 
  -3   1   0   22.32    0.90 
  -3   1   0   23.15    0.93 
  -3   1  -1  590.59    9.60 
  -3   1  -1  582.45    9.57 
  -3   1  -2  127.57    2.90 
  -3   1  -2  166.29    3.41 
  -3   1  -2  168.81    3.30 
  -3   1  -2  171.25    3.33 
  -3   1  -2  233.58    3.79 
  -3   1  -2  232.11    3.75 
  -3   1  -3  134.46    2.89 
  -3   1  -3   89.96    1.94 
  -3   1  -4   23.94    1.20 
  -3   1  -4   27.28    1.56 
  -3   1  -5    3.18    0.86 
  -3   1  -5    2.11    0.91 
  -3   1  -5    1.24    0.43 
  -3   1  -5    2.08    0.71 
  -3   1  -5    1.93    0.76 
  -3   1  -5    2.93    1.08 
  -3   1  -5    2.39    0.73 
  -3   1  -5    1.95    0.69 
  -3   1  -5    2.60    0.81 
  -3   1  -5    1.65    0.63 
  -3   1  -5    1.97    0.67 
  -3   1  -5    1.96    1.05 
  -3   1  -5    1.83    1.04 
  -3   1  -5    1.71    0.90 
  -3   1  -6   78.27    2.69 
  -3   1  -6   67.64    1.66 
  -3   1  -6  100.38    2.34 
  -3   1  -6   98.44    2.38 
  -3   1  -6   68.87    2.57 
  -3   1  -6  104.79    2.89 
  -3   1  -6   73.56    2.24 
  -3   1  -6   58.67    1.86 
  -3   1  -6   69.82    2.02 
  -3   1  -6   83.62    3.12 
  -3   1  -6   72.91    2.08 
  -3   1  -6   72.67    2.06 
  -3   1  -6   67.45    2.64 
  -3   1  -6   84.07    3.12 
  -3   1  -7    6.42    1.21 
  -3   1  -7    9.23    1.51 
  -3   1  -7    9.67    1.52 
  -3   1  -7   11.54    1.17 
  -3   1  -7   10.53    1.21 
  -3   1  -7    7.06    1.34 
  -3   1  -7   12.07    1.44 
  -3   1  -7    9.31    0.97 
  -3   1  -7    9.39    1.13 
  -3   1  -7    7.59    0.96 
  -3   1  -7    8.65    1.01 
  -3   1  -7    8.63    1.20 
  -3   1  -8   21.34    1.33 
  -3   1  -8   20.38    1.27 
  -3   1  -8   24.87    1.89 
  -3   1  -8   18.11    2.55 
  -3   1  -8   27.62    1.47 
  -3   1  -8   26.08    1.39 
  -3   1  -8   22.06    1.87 
  -3   1  -8   23.32    1.57 
  -3   1  -8   23.79    1.41 
  -3   1  -8   22.15    1.60 
  -3   1  -8   25.76    1.96 
  -3   1  -9   -0.49    0.87 
  -3   1  -9    0.08    0.91 
  -3   1  -9   -0.82    1.22 
  -3   1  -9    1.09    1.85 
  -3   1  -9    0.15    0.79 
  -3   1  -9    0.15    0.80 
  -3   1  -9    0.30    0.97 
  -3   1  -9    0.15    0.97 
  -3   1 -10    2.88    0.81 
  -3   1 -10    4.20    0.79 
  -3   1 -10    3.62    0.80 
  -3   1 -10    4.53    1.01 
  -3   1 -10    3.56    0.98 
  -3   1 -10    4.64    1.80 
  -3   1 -11    0.68    0.57 
  -3   1 -11    0.80    0.64 
  -3   0  10    0.37    0.40 
  -3   0  10    0.26    0.38 
  -3   0   9   25.07    1.18 
  -3   0   9   23.15    1.16 
  -3   0   9   52.77    1.84 
  -3   0   9    3.43    1.20 
  -3   0   9    5.95    0.86 
  -3   0   9    2.88    0.83 
  -3   0   9   32.64    1.24 
  -3   0   9   31.51    0.97 
  -3   0   8    1.08    0.56 
  -3   0   8    1.52    0.58 
  -3   0   8    2.00    1.06 
  -3   0   8    0.50    0.80 
  -3   0   8    0.19    0.51 
  -3   0   8    0.13    0.51 
  -3   0   8    1.59    0.71 
  -3   0   8    1.08    0.45 
  -3   0   7   15.22    1.01 
  -3   0   7   15.35    1.00 
  -3   0   7   11.89    1.22 
  -3   0   7   12.83    0.67 
  -3   0   7   14.44    0.70 
  -3   0   7   15.81    0.98 
  -3   0   7   13.27    0.74 
  -3   0   6    2.22    1.55 
  -3   0   6   11.54    0.80 
  -3   0   6   11.27    0.72 
  -3   0   6    9.53    0.61 
  -3   0   6    4.60    0.89 
  -3   0   6    7.05    0.76 
  -3   0   6    9.79    0.56 
  -3   0   6    8.09    0.54 
  -3   0   6   10.04    0.78 
  -3   0   6   10.96    0.79 
  -3   0   6    7.91    0.60 
  -3   0   6    8.12    0.56 
  -3   0   5    2.25    0.39 
  -3   0   5    2.05    0.39 
  -3   0   5    2.58    0.46 
  -3   0   5    3.10    0.48 
  -3   0   5    2.30    0.43 
  -3   0   5    2.41    0.40 
  -3   0   4   70.27    1.75 
  -3   0   4   71.63    1.76 
  -3   0   4   59.78    1.28 
  -3   0   4   59.43    1.28 
  -3   0   3   75.46    1.73 
  -3   0   3   73.26    1.71 
  -3   0   3   70.67    1.38 
  -3   0   3   69.69    1.39 
  -3   0   2   27.86    0.91 
  -3   0   2   29.04    0.92 
  -3   0   2   28.42    0.72 
  -3   0   2   29.13    0.72 
  -3   0   1  295.60    5.17 
  -3   0   1  298.98    5.18 
  -3   0   0  163.28    3.12 
  -3   0  -1  252.69    4.70 
  -3   0  -1  268.34    4.72 
  -3   0  -2   42.19    1.80 
  -3   0  -2   45.36    1.84 
  -3   0  -3  174.22    3.03 
  -3   0  -3  174.06    3.61 
  -3   0  -3  207.50    4.47 
  -3   0  -3  211.35    4.47 
  -3   0  -3  189.12    3.41 
  -3   0  -3  151.49    2.98 
  -3   0  -3  163.03    3.10 
  -3   0  -3  155.20    2.96 
  -3   0  -3  187.76    3.38 
  -3   0  -3  195.68    3.69 
  -3   0  -4  108.20    2.39 
  -3   0  -4  108.25    2.35 
  -3   0  -4  105.23    2.61 
  -3   0  -5    0.56    0.75 
  -3   0  -5    0.84    0.72 
  -3   0  -5    0.79    0.65 
  -3   0  -5    0.78    0.37 
  -3   0  -5    0.12    0.36 
  -3   0  -5    0.69    0.58 
  -3   0  -6   17.84    1.07 
  -3   0  -6   19.48    1.14 
  -3   0  -6   15.79    0.69 
  -3   0  -6   16.19    1.28 
  -3   0  -6   14.75    1.32 
  -3   0  -6   16.95    1.09 
  -3   0  -6   17.39    2.17 
  -3   0  -6   16.61    1.20 
  -3   0  -6   16.19    0.95 
  -3   0  -6   16.79    0.93 
  -3   0  -7  240.05    5.43 
  -3   0  -7  235.67    4.75 
  -3   0  -7  238.12    4.72 
  -3   0  -7  253.35    4.76 
  -3   0  -7  249.37    4.73 
  -3   0  -7  220.66    4.23 
  -3   0  -7  244.74    5.19 
  -3   0  -7  255.82    5.97 
  -3   0  -7  208.94    4.95 
  -3   0  -7  224.77    4.85 
  -3   0  -7  287.91    5.91 
  -3   0  -7  328.05    7.55 
  -3   0  -7  262.17    6.02 
  -3   0  -8    4.16    0.84 
  -3   0  -8    3.59    0.84 
  -3   0  -8    3.88    1.19 
  -3   0  -8    3.73    1.22 
  -3   0  -8    3.03    0.93 
  -3   0  -8    3.49    0.88 
  -3   0  -8    2.50    0.89 
  -3   0  -8    3.86    0.98 
  -3   0  -8    3.05    2.01 
  -3   0  -8    1.52    1.20 
  -3   0  -8    2.96    0.90 
  -3   0  -8    3.16    1.01 
  -3   0  -9    9.83    1.33 
  -3   0  -9    9.27    1.32 
  -3   0  -9    2.32    0.94 
  -3   0  -9    3.98    1.02 
  -3   0  -9    7.68    0.93 
  -3   0  -9    8.57    0.97 
  -3   0  -9    7.68    2.17 
  -3   0  -9    5.87    1.34 
  -3   0  -9    8.64    1.02 
  -3   0 -10    0.44    0.78 
  -3   0 -10    0.07    0.74 
  -3   0 -10    0.52    0.80 
  -3   0 -10   -0.45    0.86 
  -3   0 -10    0.34    0.89 
  -3   0 -10    0.11    0.74 
  -3   0 -10    0.49    0.77 
  -3   0 -11    0.46    0.61 
  -3   0 -11    0.82    0.65 
  -3   0 -11   -0.80    0.71 
  -3  -1  10   20.43    0.71 
  -3  -1   9   10.04    0.76 
  -3  -1   9    9.74    0.62 
  -3  -1   9    7.03    0.66 
  -3  -1   9    5.97    0.64 
  -3  -1   8   10.96    0.69 
  -3  -1   8   12.65    0.76 
  -3  -1   8   14.93    0.90 
  -3  -1   8   15.47    0.77 
  -3  -1   8   16.43    0.91 
  -3  -1   8   11.63    0.87 
  -3  -1   8   13.01    0.89 
  -3  -1   7    2.29    0.55 
  -3  -1   7    2.21    0.52 
  -3  -1   7    0.62    1.55 
  -3  -1   7    3.83    0.62 
  -3  -1   7    2.82    0.54 
  -3  -1   7    2.62    0.53 
  -3  -1   7    4.35    0.63 
  -3  -1   7   -0.18    0.66 
  -3  -1   7    3.76    0.94 
  -3  -1   6   -0.05    0.40 
  -3  -1   6   -0.36    0.46 
  -3  -1   6   -0.13    1.34 
  -3  -1   6    0.23    0.34 
  -3  -1   6   -0.04    0.33 
  -3  -1   6   -0.22    0.46 
  -3  -1   5   13.39    0.66 
  -3  -1   5   13.01    0.62 
  -3  -1   5   11.28    0.69 
  -3  -1   5   12.58    0.73 
  -3  -1   4   49.26    1.12 
  -3  -1   4   50.46    1.17 
  -3  -1   4   44.67    1.26 
  -3  -1   4   41.52    1.24 
  -3  -1   3  147.77    2.67 
  -3  -1   3  151.23    2.64 
  -3  -1   3  140.64    2.78 
  -3  -1   3  141.47    2.78 
  -3  -1   2   47.93    1.04 
  -3  -1   1    0.37    0.25 
  -3  -1   1    0.36    0.49 
  -3  -1   0  107.87    2.42 
  -3  -1   0  105.29    2.06 
  -3  -1  -1   -0.40    0.70 
  -3  -1  -1    0.45    0.66 
  -3  -1  -1    0.08    0.45 
  -3  -1  -2  167.05    3.70 
  -3  -1  -2  148.43    2.53 
  -3  -1  -2  140.11    2.52 
  -3  -1  -2  170.73    2.77 
  -3  -1  -2  157.64    2.78 
  -3  -1  -2  166.58    3.71 
  -3  -1  -2  168.81    3.19 
  -3  -1  -3   25.38    1.14 
  -3  -1  -3   30.79    1.03 
  -3  -1  -3   29.90    1.01 
  -3  -1  -3   27.12    0.81 
  -3  -1  -3   24.53    0.89 
  -3  -1  -3   32.50    1.58 
  -3  -1  -3   26.61    0.62 
  -3  -1  -3   26.74    0.76 
  -3  -1  -3   23.74    0.61 
  -3  -1  -3   26.89    1.28 
  -3  -1  -3   30.11    1.17 
  -3  -1  -3   32.03    0.90 
  -3  -1  -3   27.91    0.98 
  -3  -1  -3   30.45    1.56 
  -3  -1  -4    7.37    0.77 
  -3  -1  -4    5.59    0.45 
  -3  -1  -4    6.44    0.60 
  -3  -1  -4    6.50    0.62 
  -3  -1  -4    6.82    1.04 
  -3  -1  -4    6.42    1.02 
  -3  -1  -4    5.47    0.43 
  -3  -1  -4    5.06    0.80 
  -3  -1  -4    5.89    0.67 
  -3  -1  -4    5.63    0.60 
  -3  -1  -4    7.08    0.55 
  -3  -1  -4    7.30    0.86 
  -3  -1  -4    4.22    0.62 
  -3  -1  -5    8.54    1.10 
  -3  -1  -5    6.32    0.49 
  -3  -1  -5    5.83    0.76 
  -3  -1  -5    5.88    0.71 
  -3  -1  -5    6.99    0.46 
  -3  -1  -5    5.19    0.81 
  -3  -1  -5    4.01    0.83 
  -3  -1  -5    7.05    0.60 
  -3  -1  -5    7.86    0.74 
  -3  -1  -5    8.84    1.09 
  -3  -1  -5    6.32    0.66 
  -3  -1  -6    5.39    0.75 
  -3  -1  -6    5.14    0.79 
  -3  -1  -6    6.08    0.49 
  -3  -1  -6    5.07    0.73 
  -3  -1  -6    3.51    0.93 
  -3  -1  -6    5.72    0.73 
  -3  -1  -6    4.82    0.51 
  -3  -1  -7  160.32    3.44 
  -3  -1  -7  161.13    3.47 
  -3  -1  -7  172.04    3.14 
  -3  -1  -7  172.32    4.02 
  -3  -1  -7  161.99    3.69 
  -3  -1  -7  173.89    4.03 
  -3  -1  -7  174.48    3.58 
  -3  -1  -7  174.64    3.55 
  -3  -1  -8    2.52    0.82 
  -3  -1  -8    2.23    0.76 
  -3  -1  -8    2.33    0.50 
  -3  -1  -8    2.94    1.90 
  -3  -1  -8    2.68    0.85 
  -3  -1  -8    3.15    1.09 
  -3  -1  -8    2.55    1.05 
  -3  -1  -8    1.69    0.75 
  -3  -1  -8    2.56    0.74 
  -3  -1  -8    2.66    0.76 
  -3  -1  -9   19.19    1.22 
  -3  -1  -9   20.54    1.14 
  -3  -1  -9   21.41    1.18 
  -3  -1  -9   20.48    1.63 
  -3  -1  -9   19.42    1.60 
  -3  -1  -9    6.75    1.06 
  -3  -1  -9    9.28    1.15 
  -3  -1 -10   -0.30    0.76 
  -3  -1 -10   -0.11    0.69 
  -3  -1 -10    1.24    0.77 
  -3  -1 -10    1.13    0.73 
  -3  -1 -10    0.89    0.76 
  -3  -1 -10    1.09    0.87 
  -3  -1 -10    1.30    0.88 
  -3  -1 -11   -0.46    0.72 
  -3  -1 -11    0.32    0.65 
  -3  -1 -11    0.65    0.68 
  -3  -2  10    0.19    0.26 
  -3  -2  10    0.08    0.30 
  -3  -2  10    0.18    0.30 
  -3  -2   9    7.09    0.53 
  -3  -2   9    7.28    0.49 
  -3  -2   9    5.38    0.58 
  -3  -2   9    5.87    0.55 
  -3  -2   8   -0.19    0.57 
  -3  -2   8    0.58    0.44 
  -3  -2   8    0.07    0.42 
  -3  -2   8   -0.31    0.47 
  -3  -2   8   -0.19    0.52 
  -3  -2   7    0.65    1.43 
  -3  -2   7   -0.43    1.44 
  -3  -2   7   -0.02    0.47 
  -3  -2   7    0.13    0.53 
  -3  -2   7    0.03    0.51 
  -3  -2   7    0.26    0.43 
  -3  -2   7   -0.01    0.43 
  -3  -2   6    0.03    1.39 
  -3  -2   6    0.12    0.53 
  -3  -2   6    0.48    0.45 
  -3  -2   6   -0.07    0.48 
  -3  -2   6    0.22    0.46 
  -3  -2   6    0.37    0.41 
  -3  -2   6    0.32    0.40 
  -3  -2   5    2.89    0.43 
  -3  -2   5    3.13    0.48 
  -3  -2   5    1.97    0.59 
  -3  -2   5    3.12    0.40 
  -3  -2   5    3.56    0.40 
  -3  -2   4   15.53    0.40 
  -3  -2   4   12.65    0.65 
  -3  -2   4   14.97    0.46 
  -3  -2   4   12.95    0.69 
  -3  -2   4   15.97    0.58 
  -3  -2   4   14.88    0.58 
  -3  -2   4   13.26    0.92 
  -3  -2   3   14.46    0.47 
  -3  -2   3   16.79    0.41 
  -3  -2   3   16.19    0.47 
  -3  -2   3   15.74    0.58 
  -3  -2   3   14.19    0.58 
  -3  -2   3   13.48    0.63 
  -3  -2   2    0.10    0.22 
  -3  -2   2    0.04    0.15 
  -3  -2   2    0.04    0.17 
  -3  -2   2    0.50    0.39 
  -3  -2   2    0.29    0.50 
  -3  -2   2    0.21    0.35 
  -3  -2   2    0.45    0.35 
  -3  -2   2    0.29    0.29 
  -3  -2   1   33.36    0.74 
  -3  -2   1   35.20    0.74 
  -3  -2   1   35.39    0.68 
  -3  -2   1   35.37    1.01 
  -3  -2   1   34.40    0.88 
  -3  -2   1   39.86    0.92 
  -3  -2   1   38.81    1.31 
  -3  -2   1   36.37    1.08 
  -3  -2   0    7.00    0.62 
  -3  -2   0    5.68    0.83 
  -3  -2   0    4.75    0.27 
  -3  -2   0    5.21    0.53 
  -3  -2   0    6.68    0.46 
  -3  -2   0    7.58    0.48 
  -3  -2   0    5.74    0.58 
  -3  -2   0    6.30    0.47 
  -3  -2  -1    6.67    0.31 
  -3  -2  -1    4.30    0.72 
  -3  -2  -1    4.78    0.69 
  -3  -2  -1    7.32    0.62 
  -3  -2  -1    5.05    0.84 
  -3  -2  -1    7.33    0.63 
  -3  -2  -1    6.54    0.33 
  -3  -2  -1    8.01    0.61 
  -3  -2  -1    8.85    0.50 
  -3  -2  -1    9.06    0.53 
  -3  -2  -1    7.98    0.45 
  -3  -2  -2   84.35    2.40 
  -3  -2  -2  102.14    2.13 
  -3  -2  -2  102.56    1.79 
  -3  -2  -2   93.66    1.76 
  -3  -2  -2   78.15    1.53 
  -3  -2  -2   87.03    1.53 
  -3  -2  -2   90.59    1.67 
  -3  -2  -2   77.39    1.50 
  -3  -2  -2   70.22    2.43 
  -3  -2  -2  100.75    2.22 
  -3  -2  -2   95.22    1.71 
  -3  -2  -2  100.49    2.29 
  -3  -2  -2   92.48    2.31 
  -3  -2  -2   94.05    1.93 
  -3  -2  -2   83.46    2.39 
  -3  -2  -2   78.65    1.63 
  -3  -2  -3   11.33    0.56 
  -3  -2  -3    9.34    0.80 
  -3  -2  -3   14.16    0.72 
  -3  -2  -3   12.59    0.69 
  -3  -2  -3   12.78    0.67 
  -3  -2  -3   13.15    0.69 
  -3  -2  -3   12.30    0.56 
  -3  -2  -3   11.63    0.42 
  -3  -2  -3   11.27    0.38 
  -3  -2  -3   12.46    0.40 
  -3  -2  -3   11.25    1.18 
  -3  -2  -3   13.73    0.57 
  -3  -2  -3    6.83    1.15 
  -3  -2  -3   14.21    0.98 
  -3  -2  -3   13.15    1.08 
  -3  -2  -3    8.20    0.66 
  -3  -2  -3   12.18    1.08 
  -3  -2  -3    9.95    0.89 
  -3  -2  -4    1.84    0.59 
  -3  -2  -4    1.78    0.46 
  -3  -2  -4    2.15    0.48 
  -3  -2  -4    2.54    0.36 
  -3  -2  -4    2.43    0.78 
  -3  -2  -4    1.93    0.76 
  -3  -2  -4    2.08    0.24 
  -3  -2  -4    2.23    0.26 
  -3  -2  -4    2.24    0.33 
  -3  -2  -4    1.13    0.60 
  -3  -2  -4    1.45    0.92 
  -3  -2  -4    2.39    0.51 
  -3  -2  -4    1.65    0.85 
  -3  -2  -4    2.75    0.41 
  -3  -2  -4    2.18    0.65 
  -3  -2  -4    0.99    0.92 
  -3  -2  -4    1.77    0.37 
  -3  -2  -4    1.87    0.49 
  -3  -2  -5   27.49    1.07 
  -3  -2  -5   26.82    1.11 
  -3  -2  -5   27.83    1.00 
  -3  -2  -5   26.47    0.96 
  -3  -2  -5   25.56    0.83 
  -3  -2  -5   17.91    0.88 
  -3  -2  -5   22.71    0.62 
  -3  -2  -5   23.96    0.63 
  -3  -2  -5   26.48    0.77 
  -3  -2  -5   14.64    1.38 
  -3  -2  -5   28.58    1.21 
  -3  -2  -5   27.31    1.15 
  -3  -2  -5   31.65    1.57 
  -3  -2  -5   31.98    1.39 
  -3  -2  -5   18.21    1.39 
  -3  -2  -5   21.56    1.39 
  -3  -2  -5   29.31    4.75 
  -3  -2  -5   27.25    1.49 
  -3  -2  -6    0.86    0.40 
  -3  -2  -6    0.32    0.58 
  -3  -2  -6    0.73    0.55 
  -3  -2  -6    1.09    0.38 
  -3  -2  -6    0.34    0.73 
  -3  -2  -6   -0.17    0.78 
  -3  -2  -6    0.91    0.49 
  -3  -2  -6    1.05    0.56 
  -3  -2  -6    1.04    0.57 
  -3  -2  -6    0.66    0.45 
  -3  -2  -6    0.62    0.80 
  -3  -2  -6    0.87    0.79 
  -3  -2  -7    1.75    0.55 
  -3  -2  -7    1.22    0.62 
  -3  -2  -7    0.85    0.65 
  -3  -2  -7    1.09    0.47 
  -3  -2  -7    1.05    0.65 
  -3  -2  -7    1.36    0.45 
  -3  -2  -8    3.76    0.51 
  -3  -2  -8    4.11    0.87 
  -3  -2  -8    4.42    0.75 
  -3  -2  -8    5.24    0.78 
  -3  -2  -8    4.36    0.75 
  -3  -2  -8    3.65    0.75 
  -3  -2  -8    2.92    0.70 
  -3  -2  -8    3.24    0.76 
  -3  -2  -9   17.17    1.04 
  -3  -2  -9   16.15    0.99 
  -3  -2  -9   15.23    1.10 
  -3  -2  -9    2.02    0.90 
  -3  -2  -9    4.30    0.95 
  -3  -2 -10   -0.41    0.66 
  -3  -2 -10   -0.39    0.73 
  -3  -2 -10   -0.07    0.72 
  -3  -2 -10   -0.29    0.67 
  -3  -2 -10   -0.26    0.69 
  -3  -2 -10   -0.37    0.84 
  -3  -2 -10    0.23    0.81 
  -3  -2 -11   -0.03    0.66 
  -3  -2 -11   -1.19    0.68 
  -3  -2 -11   -0.24    0.69 
  -3  -3  10    0.49    0.23 
  -3  -3  10    0.03    0.27 
  -3  -3  10    0.58    0.27 
  -3  -3   9    0.93    0.34 
  -3  -3   9    0.82    0.48 
  -3  -3   9    0.76    0.42 
  -3  -3   9    1.39    0.36 
  -3  -3   9    1.27    0.35 
  -3  -3   9    1.20    0.50 
  -3  -3   8   -0.02    0.47 
  -3  -3   8   -0.24    0.51 
  -3  -3   8   -0.06    0.50 
  -3  -3   8    0.30    0.38 
  -3  -3   8    0.51    0.38 
  -3  -3   7    0.20    1.28 
  -3  -3   7    1.27    1.52 
  -3  -3   7    0.50    0.58 
  -3  -3   7    0.62    0.53 
  -3  -3   7    0.59    0.49 
  -3  -3   7    1.04    0.52 
  -3  -3   7    1.26    0.43 
  -3  -3   7    1.27    0.42 
  -3  -3   6    0.83    1.46 
  -3  -3   6   -0.02    0.56 
  -3  -3   6    0.70    0.47 
  -3  -3   6    1.07    0.43 
  -3  -3   6    0.79    0.42 
  -3  -3   5    0.02    0.23 
  -3  -3   5    1.19    0.20 
  -3  -3   5    2.07    0.43 
  -3  -3   5    1.50    0.40 
  -3  -3   5    1.91    0.49 
  -3  -3   5    2.39    0.46 
  -3  -3   5    0.29    0.56 
  -3  -3   4    0.12    0.17 
  -3  -3   4    0.16    0.41 
  -3  -3   4    0.22    0.36 
  -3  -3   4    0.26    0.37 
  -3  -3   4    0.57    0.23 
  -3  -3   3   17.73    0.52 
  -3  -3   3   19.96    0.46 
  -3  -3   3   13.06    0.62 
  -3  -3   3   12.96    0.65 
  -3  -3   3   23.27    0.95 
  -3  -3   3   16.93    0.65 
  -3  -3   3   18.46    0.65 
  -3  -3   3   16.24    0.77 
  -3  -3   2   10.16    0.41 
  -3  -3   2    9.52    0.36 
  -3  -3   2    7.34    0.56 
  -3  -3   2   10.78    0.39 
  -3  -3   2    6.94    0.52 
  -3  -3   2   11.33    0.34 
  -3  -3   2   11.24    0.64 
  -3  -3   2   14.54    0.95 
  -3  -3   2   13.23    0.81 
  -3  -3   2   11.46    0.56 
  -3  -3   2   12.33    0.58 
  -3  -3   1  140.15    2.52 
  -3  -3   1  166.69    2.60 
  -3  -3   1  140.17    2.39 
  -3  -3   1  154.84    2.39 
  -3  -3   1  141.35    2.35 
  -3  -3   1  133.94    2.40 
  -3  -3   1  146.25    3.02 
  -3  -3   1  160.55    3.27 
  -3  -3   1  156.36    2.85 
  -3  -3   1  130.85    2.80 
  -3  -3   1  105.21    2.36 
  -3  -3   1  128.15    2.70 
  -3  -3   1  203.87    3.30 
  -3  -3   0    2.83    0.68 
  -3  -3   0    2.55    0.23 
  -3  -3   0    2.72    0.26 
  -3  -3   0    0.83    0.64 
  -3  -3   0    2.61    0.83 
  -3  -3   0    2.25    0.49 
  -3  -3   0    2.27    0.39 
  -3  -3   0    1.81    0.24 
  -3  -3   0    2.68    0.48 
  -3  -3   0    2.66    0.46 
  -3  -3   0    3.35    0.39 
  -3  -3   0    3.24    0.51 
  -3  -3  -1    1.00    0.33 
  -3  -3  -1    1.45    0.49 
  -3  -3  -1    1.10    0.49 
  -3  -3  -1    0.69    0.23 
  -3  -3  -1    0.94    0.21 
  -3  -3  -1    1.24    0.34 
  -3  -3  -1    0.68    0.71 
  -3  -3  -1    0.94    0.47 
  -3  -3  -1    0.47    0.23 
  -3  -3  -1    0.80    0.62 
  -3  -3  -1    0.77    0.43 
  -3  -3  -2   29.72    1.35 
  -3  -3  -2   43.52    1.29 
  -3  -3  -2   45.32    1.08 
  -3  -3  -2   46.19    1.09 
  -3  -3  -2   37.61    0.80 
  -3  -3  -2   39.63    0.79 
  -3  -3  -2   34.11    0.75 
  -3  -3  -2   39.66    0.92 
  -3  -3  -2   26.25    1.68 
  -3  -3  -2   39.25    1.14 
  -3  -3  -2   41.75    1.34 
  -3  -3  -2   39.61    0.94 
  -3  -3  -2   41.85    1.35 
  -3  -3  -2   41.64    1.61 
  -3  -3  -2   40.57    1.45 
  -3  -3  -2   30.46    1.35 
  -3  -3  -2   28.70    0.81 
  -3  -3  -3   60.48    1.41 
  -3  -3  -3   53.90    1.62 
  -3  -3  -3   78.67    1.57 
  -3  -3  -3   59.78    1.48 
  -3  -3  -3   74.58    1.55 
  -3  -3  -3   68.35    1.45 
  -3  -3  -3   62.21    1.53 
  -3  -3  -3   68.92    1.28 
  -3  -3  -3   69.09    1.25 
  -3  -3  -3   62.42    1.22 
  -3  -3  -3   60.44    2.39 
  -3  -3  -3   66.50    1.66 
  -3  -3  -3   32.51    2.20 
  -3  -3  -3   74.84    2.45 
  -3  -3  -3   72.47    1.50 
  -3  -3  -3   80.31    2.04 
  -3  -3  -3   65.69    2.06 
  -3  -3  -3   62.80    1.87 
  -3  -3  -3   69.82    2.23 
  -3  -3  -3   66.33    2.08 
  -3  -3  -4    6.10    0.46 
  -3  -3  -4    5.73    0.63 
  -3  -3  -4    6.12    0.53 
  -3  -3  -4    7.71    0.48 
  -3  -3  -4    6.38    0.55 
  -3  -3  -4    6.55    0.37 
  -3  -3  -4    6.38    0.31 
  -3  -3  -4    7.59    0.34 
  -3  -3  -4    5.06    0.86 
  -3  -3  -4    2.19    1.06 
  -3  -3  -4    9.09    0.74 
  -3  -3  -4    4.56    1.06 
  -3  -3  -4    5.84    1.04 
  -3  -3  -4    7.97    0.53 
  -3  -3  -4    8.25    0.81 
  -3  -3  -4    6.17    0.83 
  -3  -3  -4    4.46    0.69 
  -3  -3  -4    6.39    0.85 
  -3  -3  -5    9.16    0.76 
  -3  -3  -5    9.59    0.65 
  -3  -3  -5    9.35    0.64 
  -3  -3  -5    9.99    0.55 
  -3  -3  -5    9.78    0.96 
  -3  -3  -5   11.47    0.53 
  -3  -3  -5   10.19    0.42 
  -3  -3  -5    9.68    0.40 
  -3  -3  -5    0.83    1.19 
  -3  -3  -5    5.10    0.94 
  -3  -3  -5   10.92    0.86 
  -3  -3  -5    5.57    1.06 
  -3  -3  -5   10.72    0.91 
  -3  -3  -5    7.34    1.03 
  -3  -3  -5   11.80    0.70 
  -3  -3  -5    9.14    0.63 
  -3  -3  -5   10.82    1.01 
  -3  -3  -5   11.87    0.84 
  -3  -3  -6   29.60    1.24 
  -3  -3  -6   30.57    1.10 
  -3  -3  -6   31.36    1.01 
  -3  -3  -6   29.86    1.11 
  -3  -3  -6   31.53    1.68 
  -3  -3  -6   30.28    0.78 
  -3  -3  -6   29.29    0.76 
  -3  -3  -6   33.66    0.92 
  -3  -3  -6   11.31    1.55 
  -3  -3  -6   33.23    1.44 
  -3  -3  -6   32.81    1.39 
  -3  -3  -6   32.94    1.69 
  -3  -3  -6   34.96    1.54 
  -3  -3  -6   22.22    1.50 
  -3  -3  -6   36.77    1.30 
  -3  -3  -6   19.41    1.53 
  -3  -3  -6   28.83    1.19 
  -3  -3  -7    0.77    0.46 
  -3  -3  -7    0.42    0.57 
  -3  -3  -7    0.46    0.52 
  -3  -3  -7    0.82    0.44 
  -3  -3  -7   -0.32    0.77 
  -3  -3  -7    0.46    0.65 
  -3  -3  -7    1.11    0.58 
  -3  -3  -7    0.44    0.72 
  -3  -3  -7    1.02    0.64 
  -3  -3  -7    0.59    0.48 
  -3  -3  -7    0.42    0.80 
  -3  -3  -7    0.39    0.81 
  -3  -3  -7    1.11    0.65 
  -3  -3  -8   44.41    2.12 
  -3  -3  -8   29.79    1.20 
  -3  -3  -8   31.30    1.24 
  -3  -3  -8   49.71    1.23 
  -3  -3  -8   48.06    1.93 
  -3  -3  -8   42.43    2.07 
  -3  -3  -9    0.26    0.63 
  -3  -3  -9    0.12    0.64 
  -3  -3  -9    0.41    0.45 
  -3  -3 -10    0.75    0.65 
  -3  -3 -10    0.89    0.63 
  -3  -3 -10    1.06    0.71 
  -3  -3 -11    1.63    0.64 
  -3  -3 -11    2.06    0.67 
  -3  -3 -11    0.04    0.67 
  -3  -4  10    0.08    0.15 
  -3  -4  10    0.20    0.30 
  -3  -4   9    0.96    0.27 
  -3  -4   9    0.90    0.28 
  -3  -4   9    1.09    0.30 
  -3  -4   8    0.21    0.45 
  -3  -4   8    0.50    0.34 
  -3  -4   8    0.37    0.34 
  -3  -4   7    0.78    0.38 
  -3  -4   7    0.61    0.37 
  -3  -4   7    0.20    0.56 
  -3  -4   7   -0.59    1.16 
  -3  -4   7    0.57    1.44 
  -3  -4   7    0.25    0.46 
  -3  -4   6    0.15    0.48 
  -3  -4   6    0.32    0.54 
  -3  -4   6    0.07    0.19 
  -3  -4   6    0.46    0.39 
  -3  -4   6    0.10    0.38 
  -3  -4   6    0.18    0.45 
  -3  -4   6   -0.11    1.51 
  -3  -4   5    0.88    0.42 
  -3  -4   5    0.94    0.43 
  -3  -4   5    0.71    0.26 
  -3  -4   5    0.10    0.45 
  -3  -4   5    0.23    0.51 
  -3  -4   5    0.27    0.20 
  -3  -4   5    0.82    0.50 
  -3  -4   5   -0.03    0.61 
  -3  -4   5   -0.04    0.22 
  -3  -4   5    0.50    0.42 
  -3  -4   4   14.31    0.48 
  -3  -4   4    7.91    0.64 
  -3  -4   4    7.83    0.59 
  -3  -4   4   13.89    0.39 
  -3  -4   4   19.60    0.97 
  -3  -4   4   13.65    0.74 
  -3  -4   4   11.41    0.93 
  -3  -4   4   17.16    0.63 
  -3  -4   4   16.70    0.62 
  -3  -4   4    0.23    0.26 
  -3  -4   4    2.34    0.64 
  -3  -4   4    1.83    0.89 
  -3  -4   3   23.07    0.63 
  -3  -4   3   21.93    0.54 
  -3  -4   3   10.62    0.72 
  -3  -4   3   10.89    0.68 
  -3  -4   3   21.99    0.58 
  -3  -4   3   20.62    0.54 
  -3  -4   3   33.49    1.37 
  -3  -4   3   30.05    1.21 
  -3  -4   3   26.26    0.78 
  -3  -4   3   24.88    0.77 
  -3  -4   3   22.41    0.95 
  -3  -4   2   17.43    0.54 
  -3  -4   2   16.41    0.48 
  -3  -4   2   19.24    0.54 
  -3  -4   2   17.49    0.47 
  -3  -4   2   22.33    1.21 
  -3  -4   2   19.37    1.04 
  -3  -4   2   19.87    0.71 
  -3  -4   2   19.01    0.69 
  -3  -4   2   17.97    0.84 
  -3  -4   1   14.33    0.63 
  -3  -4   1   13.64    0.65 
  -3  -4   1   11.22    0.56 
  -3  -4   1   12.20    0.39 
  -3  -4   1   14.33    0.46 
  -3  -4   1   10.58    0.47 
  -3  -4   1   13.68    1.09 
  -3  -4   1   13.47    0.72 
  -3  -4   1    9.82    0.71 
  -3  -4   1   11.05    0.67 
  -3  -4   0   48.19    1.40 
  -3  -4   0   51.04    1.19 
  -3  -4   0   54.20    1.24 
  -3  -4   0   45.54    1.15 
  -3  -4   0   68.81    1.86 
  -3  -4   0   47.22    1.81 
  -3  -4   0   57.84    1.04 
  -3  -4   0   46.24    0.95 
  -3  -4   0   45.02    1.06 
  -3  -4   0   45.59    1.01 
  -3  -4   0   47.39    0.94 
  -3  -4   0   45.51    1.11 
  -3  -4   0   45.63    1.47 
  -3  -4   0   46.54    1.81 
  -3  -4   0   53.66    1.41 
  -3  -4   0   59.20    1.50 
  -3  -4  -1    9.22    0.66 
  -3  -4  -1    9.69    0.59 
  -3  -4  -1   10.16    0.61 
  -3  -4  -1    9.23    0.49 
  -3  -4  -1   10.61    0.38 
  -3  -4  -1    9.10    0.46 
  -3  -4  -1    9.95    0.40 
  -3  -4  -1    7.44    1.03 
  -3  -4  -1   10.67    0.63 
  -3  -4  -1    9.45    0.72 
  -3  -4  -1    9.45    0.47 
  -3  -4  -1   11.73    1.02 
  -3  -4  -1    8.71    1.01 
  -3  -4  -1    8.35    0.60 
  -3  -4  -1    8.24    0.64 
  -3  -4  -2    0.37    0.39 
  -3  -4  -2    0.01    0.45 
  -3  -4  -2    0.12    0.33 
  -3  -4  -2    0.82    0.47 
  -3  -4  -2   -0.01    0.33 
  -3  -4  -2    0.50    0.22 
  -3  -4  -2    0.53    0.21 
  -3  -4  -2    0.36    0.30 
  -3  -4  -2    0.25    0.22 
  -3  -4  -2    0.28    0.18 
  -3  -4  -2    0.13    0.82 
  -3  -4  -2   -0.14    0.67 
  -3  -4  -2    0.08    0.33 
  -3  -4  -2    0.60    0.42 
  -3  -4  -2    0.24    0.47 
  -3  -4  -2    0.07    0.26 
  -3  -4  -2    0.62    0.65 
  -3  -4  -2    0.27    0.28 
  -3  -4  -2    0.24    0.32 
  -3  -4  -3    2.24    0.29 
  -3  -4  -3    1.88    0.49 
  -3  -4  -3    2.03    0.39 
  -3  -4  -3    2.57    0.53 
  -3  -4  -3    1.74    0.38 
  -3  -4  -3    3.10    0.30 
  -3  -4  -3    2.90    0.24 
  -3  -4  -3    3.03    0.36 
  -3  -4  -3    3.37    0.28 
  -3  -4  -3    2.66    0.80 
  -3  -4  -3    2.32    0.94 
  -3  -4  -3    3.09    0.47 
  -3  -4  -3    3.02    0.38 
  -3  -4  -3    3.26    0.58 
  -3  -4  -3    1.89    0.55 
  -3  -4  -3    2.46    0.78 
  -3  -4  -3    2.47    0.59 
  -3  -4  -3    2.84    0.51 
  -3  -4  -4    1.19    0.51 
  -3  -4  -4    1.73    0.38 
  -3  -4  -4    1.17    0.41 
  -3  -4  -4    1.39    0.44 
  -3  -4  -4    1.56    0.31 
  -3  -4  -4    2.04    0.65 
  -3  -4  -4    1.19    0.68 
  -3  -4  -4    1.59    0.59 
  -3  -4  -4    2.21    0.29 
  -3  -4  -4    1.70    0.25 
  -3  -4  -4    1.78    0.77 
  -3  -4  -4    1.14    0.30 
  -3  -4  -4    0.58    0.87 
  -3  -4  -4    2.23    0.41 
  -3  -4  -4    1.33    0.84 
  -3  -4  -4    1.81    0.56 
  -3  -4  -5    4.63    0.70 
  -3  -4  -5    2.16    0.89 
  -3  -4  -5    5.28    0.56 
  -3  -4  -5    2.79    0.94 
  -3  -4  -5    3.72    0.55 
  -3  -4  -5    3.58    0.53 
  -3  -4  -5    4.17    0.47 
  -3  -4  -5    3.50    0.73 
  -3  -4  -5    4.00    0.75 
  -3  -4  -5    2.10    0.69 
  -3  -4  -5    4.39    0.33 
  -3  -4  -5    5.09    0.36 
  -3  -4  -5    5.03    0.45 
  -3  -4  -5    2.76    0.76 
  -3  -4  -5    2.79    0.58 
  -3  -4  -5    3.78    0.67 
  -3  -4  -5    3.02    0.43 
  -3  -4  -5    4.06    0.66 
  -3  -4  -6    0.47    0.51 
  -3  -4  -6    0.05    0.84 
  -3  -4  -6    0.15    0.80 
  -3  -4  -6    0.12    0.58 
  -3  -4  -6   -0.29    0.54 
  -3  -4  -6   -0.20    0.57 
  -3  -4  -6    0.03    0.44 
  -3  -4  -6    0.35    0.66 
  -3  -4  -6    0.68    0.68 
  -3  -4  -6   -0.08    0.43 
  -3  -4  -6    0.28    0.33 
  -3  -4  -6    0.26    0.30 
  -3  -4  -6   -0.28    0.63 
  -3  -4  -6    0.35    0.65 
  -3  -4  -6    0.02    0.61 
  -3  -4  -6    0.03    0.37 
  -3  -4  -6    0.62    0.61 
  -3  -4  -7   19.46    1.25 
  -3  -4  -7   15.24    1.28 
  -3  -4  -7   20.02    0.76 
  -3  -4  -7   14.57    0.99 
  -3  -4  -7   16.73    0.91 
  -3  -4  -7   16.87    0.84 
  -3  -4  -7   20.49    1.22 
  -3  -4  -7   15.94    1.32 
  -3  -4  -7   21.61    1.19 
  -3  -4  -7   11.89    1.18 
  -3  -4  -7   11.59    1.23 
  -3  -4  -7   17.54    1.20 
  -3  -4  -8   -0.03    0.68 
  -3  -4  -8    0.07    0.45 
  -3  -4  -8    0.06    0.72 
  -3  -4  -8   -0.21    0.71 
  -3  -4  -8    0.18    0.49 
  -3  -4  -8   -0.03    0.65 
  -3  -4  -8    0.19    0.62 
  -3  -4  -9   -0.03    0.73 
  -3  -4  -9    0.03    0.73 
  -3  -4  -9   -0.05    0.47 
  -3  -4 -10    0.17    0.59 
  -3  -4 -10   -0.06    0.56 
  -3  -5   9    1.12    0.24 
  -3  -5   8    0.21    0.37 
  -3  -5   7    1.01    1.34 
  -3  -5   7    0.39    0.43 
  -3  -5   7    0.38    0.47 
  -3  -5   7    1.41    0.43 
  -3  -5   7    0.55    0.32 
  -3  -5   7    0.89    0.32 
  -3  -5   6    0.32    1.45 
  -3  -5   6    1.23    0.48 
  -3  -5   6    1.32    0.54 
  -3  -5   6    0.70    0.47 
  -3  -5   6    0.81    0.20 
  -3  -5   6    1.44    0.44 
  -3  -5   6    0.71    0.35 
  -3  -5   6    1.19    0.35 
  -3  -5   5    2.04    0.40 
  -3  -5   5    1.98    0.41 
  -3  -5   5    1.97    0.30 
  -3  -5   5    1.31    0.52 
  -3  -5   5    1.19    0.56 
  -3  -5   5    1.40    0.24 
  -3  -5   5    2.42    0.62 
  -3  -5   5    1.26    0.64 
  -3  -5   5    0.17    0.66 
  -3  -5   5    0.02    0.21 
  -3  -5   5    0.28    0.85 
  -3  -5   5    2.32    0.45 
  -3  -5   4   22.97    0.65 
  -3  -5   4    9.68    0.78 
  -3  -5   4    9.56    0.73 
  -3  -5   4   19.80    0.54 
  -3  -5   4   30.25    1.27 
  -3  -5   4   22.54    1.01 
  -3  -5   4   25.95    0.75 
  -3  -5   4   23.89    0.72 
  -3  -5   4    2.69    0.81 
  -3  -5   4    5.72    1.11 
  -3  -5   3    5.60    0.38 
  -3  -5   3    5.71    0.35 
  -3  -5   3    5.22    0.32 
  -3  -5   3    5.20    0.31 
  -3  -5   3    5.21    0.58 
  -3  -5   3    6.17    0.50 
  -3  -5   3    5.75    0.49 
  -3  -5   3    7.92    0.93 
  -3  -5   3    8.51    0.84 
  -3  -5   2   30.49    0.77 
  -3  -5   2   35.73    0.78 
  -3  -5   2   28.75    0.68 
  -3  -5   2   39.81    1.67 
  -3  -5   2   36.07    1.47 
  -3  -5   2   29.58    1.15 
  -3  -5   2   34.12    0.89 
  -3  -5   2   31.95    0.90 
  -3  -5   1    0.74    0.39 
  -3  -5   1    1.01    0.74 
  -3  -5   1    0.44    0.63 
  -3  -5   1    0.66    0.25 
  -3  -5   1    0.51    0.20 
  -3  -5   1    1.02    0.27 
  -3  -5   1    0.86    0.20 
  -3  -5   1    0.95    0.44 
  -3  -5   1    1.02    0.51 
  -3  -5   1    0.82    0.43 
  -3  -5   1    0.66    0.44 
  -3  -5   1    1.18    0.34 
  -3  -5   0   -0.08    0.38 
  -3  -5   0    0.13    0.76 
  -3  -5   0    0.05    0.26 
  -3  -5   0    0.07    0.35 
  -3  -5   0   -0.27    0.44 
  -3  -5   0    0.31    0.31 
  -3  -5   0   -0.19    0.42 
  -3  -5   0    0.25    0.23 
  -3  -5   0    0.08    0.28 
  -3  -5   0   -0.05    0.24 
  -3  -5   0   -0.03    0.19 
  -3  -5   0   -0.05    0.21 
  -3  -5   0    0.16    0.19 
  -3  -5   0   -0.29    0.68 
  -3  -5   0    0.44    0.44 
  -3  -5   0   -0.01    0.37 
  -3  -5  -1    2.99    0.48 
  -3  -5  -1    2.26    0.47 
  -3  -5  -1    2.76    0.49 
  -3  -5  -1    2.38    0.37 
  -3  -5  -1    3.40    0.30 
  -3  -5  -1    2.60    0.35 
  -3  -5  -1    3.14    0.30 
  -3  -5  -1    3.72    0.81 
  -3  -5  -1    2.10    0.84 
  -3  -5  -1    2.95    0.35 
  -3  -5  -1    2.76    0.45 
  -3  -5  -1    2.85    0.52 
  -3  -5  -1    3.31    0.49 
  -3  -5  -1    2.47    0.49 
  -3  -5  -1    4.41    0.87 
  -3  -5  -2   20.04    0.98 
  -3  -5  -2   18.64    0.78 
  -3  -5  -2   18.97    0.74 
  -3  -5  -2   19.91    0.80 
  -3  -5  -2   26.14    0.65 
  -3  -5  -2   21.04    0.66 
  -3  -5  -2   24.70    0.62 
  -3  -5  -2   19.18    0.67 
  -3  -5  -2   21.31    0.56 
  -3  -5  -2   23.63    1.01 
  -3  -5  -2   20.74    1.05 
  -3  -5  -2   24.13    0.85 
  -3  -5  -2   23.88    1.32 
  -3  -5  -2   18.20    1.34 
  -3  -5  -2   16.97    0.91 
  -3  -5  -2   16.43    0.87 
  -3  -5  -3    7.33    0.54 
  -3  -5  -3    6.97    0.53 
  -3  -5  -3   12.03    0.49 
  -3  -5  -3    7.58    1.11 
  -3  -5  -3   11.02    1.12 
  -3  -5  -3   12.28    0.45 
  -3  -5  -3    9.79    0.52 
  -3  -5  -3   10.28    0.40 
  -3  -5  -3    6.65    1.21 
  -3  -5  -3   11.39    0.79 
  -3  -5  -3    9.96    0.82 
  -3  -5  -3   12.64    0.68 
  -3  -5  -3   10.27    0.79 
  -3  -5  -4    0.51    0.42 
  -3  -5  -4    0.62    0.41 
  -3  -5  -4    0.13    0.41 
  -3  -5  -4    0.51    0.32 
  -3  -5  -4    1.11    0.30 
  -3  -5  -4    1.11    0.28 
  -3  -5  -4    0.46    0.73 
  -3  -5  -4    0.75    0.92 
  -3  -5  -4    0.62    0.50 
  -3  -5  -4    0.20    0.47 
  -3  -5  -4    0.79    0.50 
  -3  -5  -4    1.41    0.43 
  -3  -5  -4    0.75    0.75 
  -3  -5  -4    0.29    0.51 
  -3  -5  -4    0.93    0.56 
  -3  -5  -5    1.33    0.69 
  -3  -5  -5    1.44    0.61 
  -3  -5  -5    1.14    0.58 
  -3  -5  -5    1.51    0.32 
  -3  -5  -5    1.45    0.34 
  -3  -5  -5   -0.03    0.99 
  -3  -5  -5    0.55    0.72 
  -3  -5  -5    0.05    0.45 
  -3  -5  -5    0.57    0.47 
  -3  -5  -5    1.18    0.50 
  -3  -5  -5    0.98    0.53 
  -3  -5  -5    0.90    0.85 
  -3  -5  -5    0.70    0.90 
  -3  -5  -5    2.36    0.52 
  -3  -5  -5    1.26    0.56 
  -3  -5  -5    1.74    0.64 
  -3  -5  -6    0.14    0.63 
  -3  -5  -6    0.33    0.60 
  -3  -5  -6    0.38    0.60 
  -3  -5  -6    0.24    0.32 
  -3  -5  -6    0.26    0.34 
  -3  -5  -6   -0.83    0.98 
  -3  -5  -6   -0.05    0.63 
  -3  -5  -6    0.12    0.57 
  -3  -5  -6    0.64    0.46 
  -3  -5  -6   -0.22    0.53 
  -3  -5  -6    0.04    0.50 
  -3  -5  -6    0.38    0.60 
  -3  -5  -6    0.26    0.65 
  -3  -5  -6    0.06    0.79 
  -3  -5  -6   -0.10    0.76 
  -3  -5  -6    0.56    0.55 
  -3  -5  -7    4.17    0.65 
  -3  -5  -7    4.10    0.57 
  -3  -5  -7    3.56    0.62 
  -3  -5  -7    0.04    0.68 
  -3  -5  -7    0.04    0.53 
  -3  -5  -7    2.62    0.78 
  -3  -5  -7    3.31    0.82 
  -3  -5  -7    5.19    0.81 
  -3  -5  -7    4.57    0.80 
  -3  -5  -8    6.22    0.70 
  -3  -5  -8    5.41    0.59 
  -3  -5  -8    6.95    0.73 
  -3  -5  -8    4.27    0.85 
  -3  -5  -8    5.06    0.89 
  -3  -5  -8    7.44    0.58 
  -3  -5  -8    7.41    0.91 
  -3  -5  -8    7.09    0.87 
  -3  -5  -9    0.03    0.69 
  -3  -5  -9    4.23    0.53 
  -3  -5 -10   -0.34    0.56 
  -3  -6   7    0.24    1.04 
  -3  -6   6    0.39    0.18 
  -3  -6   6    0.80    1.31 
  -3  -6   5    3.77    0.29 
  -3  -6   5    1.19    0.65 
  -3  -6   5    4.77    0.46 
  -3  -6   5    1.19    0.86 
  -3  -6   5    4.50    0.35 
  -3  -6   4    1.88    0.27 
  -3  -6   4    1.89    0.47 
  -3  -6   4    2.73    0.64 
  -3  -6   4    3.13    0.94 
  -3  -6   4    2.47    0.35 
  -3  -6   3   57.04    1.19 
  -3  -6   3   54.39    1.14 
  -3  -6   3   55.90    1.72 
  -3  -6   3   58.78    1.26 
  -3  -6   2    2.29    0.28 
  -3  -6   2    3.21    0.36 
  -3  -6   2    2.39    0.30 
  -3  -6   2    3.12    0.78 
  -3  -6   2    3.28    0.84 
  -3  -6   2    2.24    0.52 
  -3  -6   2    3.48    0.86 
  -3  -6   1   10.68    0.57 
  -3  -6   1   11.70    0.62 
  -3  -6   1   13.94    0.50 
  -3  -6   1   10.58    0.41 
  -3  -6   1   12.44    0.44 
  -3  -6   1   12.42    1.06 
  -3  -6   1   11.03    0.79 
  -3  -6   1   12.13    0.83 
  -3  -6   1   15.46    0.96 
  -3  -6   0    6.09    0.64 
  -3  -6   0    8.00    0.54 
  -3  -6   0    6.33    0.49 
  -3  -6   0    8.61    0.43 
  -3  -6   0    7.62    0.43 
  -3  -6   0    6.76    0.35 
  -3  -6   0    5.64    0.43 
  -3  -6   0    8.58    0.43 
  -3  -6   0    8.34    0.37 
  -3  -6   0    6.97    0.66 
  -3  -6   0    8.83    0.76 
  -3  -6   0    6.46    1.00 
  -3  -6   0    7.14    0.63 
  -3  -6  -1    2.75    0.52 
  -3  -6  -1    3.31    0.43 
  -3  -6  -1    1.37    0.37 
  -3  -6  -1    3.23    0.36 
  -3  -6  -1    2.74    0.38 
  -3  -6  -1    3.47    0.44 
  -3  -6  -1    2.90    0.56 
  -3  -6  -1    2.45    0.55 
  -3  -6  -1    3.92    0.88 
  -3  -6  -1    3.35    0.55 
  -3  -6  -1    3.06    0.48 
  -3  -6  -2    3.18    0.44 
  -3  -6  -2    3.97    0.37 
  -3  -6  -2    2.70    0.29 
  -3  -6  -2    0.29    0.34 
  -3  -6  -2    2.94    0.37 
  -3  -6  -2    2.61    0.38 
  -3  -6  -2    2.52    0.57 
  -3  -6  -2    3.04    0.57 
  -3  -6  -2    1.58    0.98 
  -3  -6  -2    2.82    0.84 
  -3  -6  -2    2.63    0.55 
  -3  -6  -2    2.97    0.85 
  -3  -6  -2    3.99    0.48 
  -3  -6  -3    3.74    0.46 
  -3  -6  -3    3.17    0.43 
  -3  -6  -3    6.14    0.44 
  -3  -6  -3    5.10    0.45 
  -3  -6  -3    5.79    0.36 
  -3  -6  -3    0.65    0.41 
  -3  -6  -3    4.84    0.69 
  -3  -6  -3    6.07    0.71 
  -3  -6  -3    2.79    0.88 
  -3  -6  -3    4.78    0.65 
  -3  -6  -3    5.80    0.90 
  -3  -6  -3    7.36    0.62 
  -3  -6  -4    3.05    0.48 
  -3  -6  -4    0.13    0.53 
  -3  -6  -4    2.44    0.45 
  -3  -6  -4    2.97    0.41 
  -3  -6  -4    3.94    0.47 
  -3  -6  -4    0.50    0.41 
  -3  -6  -4    5.34    0.38 
  -3  -6  -4    6.55    0.64 
  -3  -6  -4    4.09    0.68 
  -3  -6  -4    2.49    1.01 
  -3  -6  -4    1.11    0.86 
  -3  -6  -4    4.58    0.71 
  -3  -6  -4    3.63    0.78 
  -3  -6  -5   -0.17    0.57 
  -3  -6  -5   -0.29    0.34 
  -3  -6  -5   -0.16    0.30 
  -3  -6  -5    0.02    0.43 
  -3  -6  -5   -0.18    0.47 
  -3  -6  -5   -0.18    0.45 
  -3  -6  -5    0.31    0.47 
  -3  -6  -5   -0.30    0.49 
  -3  -6  -5   -0.02    0.67 
  -3  -6  -5    0.15    0.79 
  -3  -6  -6    3.11    0.57 
  -3  -6  -6    3.06    0.55 
  -3  -6  -6    0.13    0.59 
  -3  -6  -6    3.75    0.78 
  -3  -6  -6    0.16    0.65 
  -3  -6  -6    5.96    0.78 
  -3  -6  -6    0.07    0.51 
  -3  -6  -6    4.50    0.42 
  -3  -6  -6    3.12    0.37 
  -3  -6  -6    0.09    0.59 
  -3  -6  -7    1.02    0.63 
  -3  -6  -7    0.03    0.51 
  -3  -6  -7    0.22    0.51 
  -3  -6  -7   -0.10    0.47 
  -3  -6  -7    0.56    0.57 
  -3  -6  -7    0.82    0.41 
  -3  -6  -7   -0.02    0.56 
  -3  -6  -8    0.75    0.43 
  -3  -6  -8    0.04    0.55 
  -3  -6  -8    0.98    0.59 
  -3  -6  -8    0.39    0.48 
  -3  -6  -8    0.13    0.47 
  -3  -6  -8    0.82    0.45 
  -3  -6  -9    0.14    0.45 
  -3  -6  -9    0.59    0.48 
  -3  -7   6    0.36    0.99 
  -3  -7   6   -0.02    0.19 
  -3  -7   6   -0.04    0.15 
  -3  -7   5    0.03    0.21 
  -3  -7   5    0.07    0.18 
  -3  -7   5    0.10    0.52 
  -3  -7   5    0.14    1.20 
  -3  -7   5   -0.12    0.24 
  -3  -7   4    0.72    0.62 
  -3  -7   4    1.34    0.79 
  -3  -7   4    1.73    0.30 
  -3  -7   4    1.36    0.39 
  -3  -7   3    2.27    0.25 
  -3  -7   3    2.42    0.47 
  -3  -7   3    2.64    0.34 
  -3  -7   2    0.56    0.27 
  -3  -7   2    0.02    0.22 
  -3  -7   2    0.08    0.28 
  -3  -7   2    0.72    0.24 
  -3  -7   2    0.41    0.53 
  -3  -7   2    0.73    0.61 
  -3  -7   2    1.07    0.45 
  -3  -7   1    1.89    0.36 
  -3  -7   1    0.66    0.34 
  -3  -7   1    0.27    0.26 
  -3  -7   1    2.37    0.33 
  -3  -7   1    0.11    0.33 
  -3  -7   1    2.30    0.27 
  -3  -7   1    2.03    0.66 
  -3  -7   1    3.03    0.74 
  -3  -7   1    0.04    0.71 
  -3  -7   0    0.28    0.35 
  -3  -7   0    0.03    0.31 
  -3  -7   0    0.02    0.28 
  -3  -7   0   -0.14    0.24 
  -3  -7   0    0.07    0.38 
  -3  -7   0    0.03    0.80 
  -3  -7   0   -0.80    0.65 
  -3  -7   0    0.49    0.62 
  -3  -7   0   -0.16    0.41 
  -3  -7   0   -0.45    0.36 
  -3  -7  -1    0.62    0.45 
  -3  -7  -1    0.59    0.48 
  -3  -7  -1    0.61    0.68 
  -3  -7  -1    0.61    0.32 
  -3  -7  -1    0.78    0.32 
  -3  -7  -1    0.60    0.39 
  -3  -7  -1    0.60    0.37 
  -3  -7  -1    1.05    0.36 
  -3  -7  -1    0.35    0.34 
  -3  -7  -1   -0.07    0.66 
  -3  -7  -2    0.22    0.46 
  -3  -7  -2    0.02    0.47 
  -3  -7  -2    0.17    0.32 
  -3  -7  -2    0.02    0.29 
  -3  -7  -2   -0.06    0.32 
  -3  -7  -2    0.18    0.25 
  -3  -7  -2    0.02    0.39 
  -3  -7  -2    0.36    0.38 
  -3  -7  -2    0.14    0.36 
  -3  -7  -2    0.14    0.68 
  -3  -7  -3    2.88    0.39 
  -3  -7  -3    2.87    0.32 
  -3  -7  -3    2.94    0.61 
  -3  -7  -3    3.45    0.63 
  -3  -7  -3    1.42    0.70 
  -3  -7  -3    2.20    0.39 
  -3  -7  -3    2.53    0.55 
  -3  -7  -3    3.11    0.75 
  -3  -7  -4    1.23    0.39 
  -3  -7  -4    1.22    0.40 
  -3  -7  -4    0.18    0.47 
  -3  -7  -4    2.42    0.68 
  -3  -7  -4    0.50    0.62 
  -3  -7  -4    3.17    0.63 
  -3  -7  -4    1.86    0.56 
  -3  -7  -4    2.37    0.33 
  -3  -7  -4    0.33    0.37 
  -3  -7  -4    2.75    0.41 
  -3  -7  -5    3.83    0.39 
  -3  -7  -5    2.62    0.34 
  -3  -7  -5    1.70    0.45 
  -3  -7  -5    1.73    0.44 
  -3  -7  -5    3.29    0.50 
  -3  -7  -5    1.16    0.58 
  -3  -7  -6    0.79    0.52 
  -3  -7  -6    0.17    0.55 
  -3  -7  -6    0.47    0.41 
  -3  -7  -6    0.17    0.42 
  -3  -7  -6    0.70    0.43 
  -3  -7  -7    2.22    0.58 
  -3  -7  -7    1.69    0.44 
  -3  -7  -7    1.88    0.45 
  -3  -7  -7    1.38    0.47 
  -3  -7  -7    2.18    0.40 
  -3  -7  -8    0.26    0.35 
  -3  -8   5    0.06    0.14 
  -3  -8   5   -0.15    0.17 
  -3  -8   5    0.15    0.79 
  -3  -8   4    0.02    0.22 
  -3  -8   4    0.31    0.46 
  -3  -8   3    0.65    0.19 
  -3  -8   3    1.14    0.67 
  -3  -8   3    0.89    0.34 
  -3  -8   3    0.84    0.25 
  -3  -8   3    0.05    0.20 
  -3  -8   3    0.76    0.23 
  -3  -8   2    0.67    0.36 
  -3  -8   2    0.38    0.20 
  -3  -8   2    0.03    0.23 
  -3  -8   2    0.04    0.20 
  -3  -8   2    0.73    0.25 
  -3  -8   1   -0.04    0.27 
  -3  -8   1   -0.34    0.47 
  -3  -8   1   -0.02    0.20 
  -3  -8   1   -0.13    0.25 
  -3  -8   1    0.03    0.23 
  -3  -8   0   -0.25    0.38 
  -3  -8   0    0.05    0.28 
  -3  -8   0    0.55    0.30 
  -3  -8   0   -0.25    0.26 
  -3  -8  -1   -0.05    0.61 
  -3  -8  -1   -0.23    0.29 
  -3  -8  -1    0.29    0.32 
  -3  -8  -1   -0.14    0.50 
  -3  -8  -1    0.12    0.35 
  -3  -8  -1   -0.11    0.40 
  -3  -8  -2    0.04    0.34 
  -3  -8  -2    0.50    0.39 
  -3  -8  -2    0.17    0.43 
  -3  -8  -2    0.00    0.26 
  -3  -8  -2    0.19    0.23 
  -3  -8  -2    0.50    0.28 
  -3  -8  -2    0.03    0.29 
  -3  -8  -2    0.23    0.36 
  -3  -8  -2   -0.18    0.50 
  -3  -8  -3    0.06    0.39 
  -3  -8  -3    1.74    0.50 
  -3  -8  -3    2.28    0.55 
  -3  -8  -3    2.50    0.33 
  -3  -8  -3    1.64    0.29 
  -3  -8  -3    2.71    0.34 
  -3  -8  -3    0.76    0.33 
  -3  -8  -3    1.99    0.47 
  -3  -8  -3    0.98    0.51 
  -3  -8  -4    0.61    0.30 
  -3  -8  -4    0.11    0.26 
  -3  -8  -4    0.48    0.32 
  -3  -8  -4    0.20    0.44 
  -3  -8  -5    0.36    0.36 
  -3  -8  -5    0.46    0.28 
  -3  -8  -5    0.48    0.27 
  -3  -8  -5    1.04    0.32 
  -3  -8  -6   -0.12    0.35 
  -3  -9   3    0.08    0.34 
  -3  -9   3    0.71    0.43 
  -3  -9   3    0.17    0.15 
  -3  -9   2    0.06    0.39 
  -3  -9   2   -0.28    0.47 
  -3  -9   2   -0.01    0.16 
  -3  -9   2    0.02    0.15 
  -3  -9   2    0.04    0.18 
  -3  -9   1   -0.11    0.19 
  -3  -9   1    0.00    0.18 
  -3  -9   1   -0.01    0.16 
  -3  -9   1    0.10    0.20 
  -3  -9   0    0.17    0.22 
  -3  -9   0   -0.20    0.30 
  -3  -9  -1   -0.12    0.24 
  -3  -9  -1    0.00    0.24 
  -3  -9  -2    0.64    0.22 
  -3  -9  -2    0.37    0.20 
  -3  -9  -2    0.11    0.24 
  -3  -9  -2    0.64    0.27 
  -3  -9  -3    0.34    0.20 
  -3  -9  -3    0.19    0.21 
  -3  -9  -3    0.29    0.27 
  -3 -10   0    0.00    0.21 
  -3 -10   0    0.04    0.24 
  -2   9   3    0.17    0.42 
  -2   9   3    0.04    0.35 
  -2   9   2    0.19    0.44 
  -2   9   2    0.91    0.51 
  -2   9   1    0.35    0.51 
  -2   9   0    0.40    0.50 
  -2   9   0    0.01    0.49 
  -2   9  -1    0.79    0.51 
  -2   9  -1    0.22    0.44 
  -2   9  -2    0.48    0.47 
  -2   9  -3   -0.21    0.39 
  -2   9  -3    0.64    0.24 
  -2   9  -3   -0.03    0.46 
  -2   9  -4   -0.11    0.15 
  -2   8   6    0.07    0.32 
  -2   8   5    0.45    0.47 
  -2   8   4    0.71    0.46 
  -2   8   4    1.21    0.57 
  -2   8   3    0.20    0.51 
  -2   8   3    0.12    0.59 
  -2   8   2    0.71    0.62 
  -2   8   2    0.23    0.36 
  -2   8   2    0.60    0.39 
  -2   8   1    0.33    0.61 
  -2   8   1    0.22    0.37 
  -2   8   1    0.23    0.38 
  -2   8   0    0.56    0.82 
  -2   8   0    0.58    0.63 
  -2   8   0    0.50    0.28 
  -2   8   0    0.05    0.28 
  -2   8   0    0.27    0.35 
  -2   8   0   -0.01    0.38 
  -2   8  -1    0.55    0.39 
  -2   8  -1    0.39    0.28 
  -2   8  -1    0.66    0.28 
  -2   8  -1    1.08    0.78 
  -2   8  -1    0.89    0.84 
  -2   8  -2    4.29    0.90 
  -2   8  -2    1.64    0.75 
  -2   8  -2    2.65    0.81 
  -2   8  -2    2.89    0.43 
  -2   8  -3    0.87    0.70 
  -2   8  -3    1.05    0.77 
  -2   8  -3    0.37    0.58 
  -2   8  -3    1.15    0.36 
  -2   8  -4    0.08    0.61 
  -2   8  -4   -0.02    0.47 
  -2   8  -4    0.65    0.49 
  -2   8  -4    0.47    0.29 
  -2   8  -5    0.17    0.26 
  -2   8  -5   -0.02    0.58 
  -2   8  -5   -0.17    0.39 
  -2   8  -5   -0.13    0.41 
  -2   8  -6   -0.17    0.48 
  -2   7   7    0.32    0.39 
  -2   7   7    0.34    0.51 
  -2   7   6    1.96    0.57 
  -2   7   6    2.22    0.70 
  -2   7   5    4.55    0.87 
  -2   7   5    4.72    0.70 
  -2   7   5    3.25    0.46 
  -2   7   5    3.88    0.48 
  -2   7   4    0.55    0.67 
  -2   7   4    0.70    0.77 
  -2   7   4   -0.07    0.38 
  -2   7   4    0.09    0.39 
  -2   7   3    4.72    0.83 
  -2   7   3    5.29    0.92 
  -2   7   3    3.79    0.58 
  -2   7   3    3.71    0.55 
  -2   7   3    3.25    0.54 
  -2   7   3    6.23    0.65 
  -2   7   2    0.03    0.43 
  -2   7   2   -0.20    0.43 
  -2   7   2    0.36    0.75 
  -2   7   2    0.24    0.78 
  -2   7   2    0.07    0.31 
  -2   7   2   -0.21    0.32 
  -2   7   2    0.35    0.48 
  -2   7   2   -0.05    0.48 
  -2   7   1   -0.05    0.46 
  -2   7   1    0.19    0.45 
  -2   7   1   -0.23    0.78 
  -2   7   1   -0.21    0.85 
  -2   7   1    0.33    0.79 
  -2   7   1   -0.14    1.80 
  -2   7   1   -0.14    0.32 
  -2   7   1   -0.35    0.33 
  -2   7   1   -0.02    0.46 
  -2   7   1    0.11    0.48 
  -2   7   0    1.01    0.53 
  -2   7   0    0.36    0.50 
  -2   7   0    0.93    0.95 
  -2   7   0    0.77    0.86 
  -2   7   0    1.58    0.82 
  -2   7   0    0.75    0.48 
  -2   7   0    0.28    0.49 
  -2   7   0    1.13    0.36 
  -2   7   0    0.49    0.35 
  -2   7  -1   24.43    0.72 
  -2   7  -1   25.81    0.74 
  -2   7  -1   13.26    0.83 
  -2   7  -1    3.91    1.19 
  -2   7  -1    7.16    1.12 
  -2   7  -1   17.34    1.21 
  -2   7  -1   26.01    1.47 
  -2   7  -1   24.17    0.90 
  -2   7  -1   10.22    0.74 
  -2   7  -2   30.47    0.76 
  -2   7  -2   25.24    0.71 
  -2   7  -2   10.45    0.73 
  -2   7  -2    4.26    1.37 
  -2   7  -2    8.05    1.25 
  -2   7  -2   25.84    1.44 
  -2   7  -2    7.85    1.17 
  -2   7  -2   19.58    1.20 
  -2   7  -2    9.97    0.69 
  -2   7  -2   28.66    0.96 
  -2   7  -3    0.27    0.81 
  -2   7  -3    0.30    0.89 
  -2   7  -3    2.03    1.07 
  -2   7  -3    2.40    0.91 
  -2   7  -3    0.07    0.88 
  -2   7  -3    2.80    0.96 
  -2   7  -3    2.14    0.34 
  -2   7  -3    2.64    0.35 
  -2   7  -3    2.30    0.89 
  -2   7  -3    3.42    0.55 
  -2   7  -4    0.03    0.82 
  -2   7  -4    0.73    0.77 
  -2   7  -4    1.29    1.01 
  -2   7  -4    1.84    0.76 
  -2   7  -4    1.42    0.48 
  -2   7  -4    1.18    0.84 
  -2   7  -5    0.05    0.65 
  -2   7  -5    0.70    0.88 
  -2   7  -5    0.11    0.71 
  -2   7  -5    0.28    0.71 
  -2   7  -5    0.51    0.59 
  -2   7  -5    0.37    0.36 
  -2   7  -5   -0.50    0.79 
  -2   7  -5   -0.70    0.82 
  -2   7  -6    0.13    0.69 
  -2   7  -6   -0.08    0.73 
  -2   7  -6   -0.06    0.61 
  -2   7  -7    0.91    0.74 
  -2   7  -7   -0.03    0.59 
  -2   6   9    0.72    0.27 
  -2   6   9    0.63    0.32 
  -2   6   8    1.74    0.48 
  -2   6   7    1.00    0.60 
  -2   6   7    0.14    0.35 
  -2   6   7    0.38    0.34 
  -2   6   6   -0.16    0.40 
  -2   6   6   -0.03    0.39 
  -2   6   6   -0.19    0.42 
  -2   6   6    0.07    0.41 
  -2   6   6    1.19    0.69 
  -2   6   6    1.82    0.60 
  -2   6   5    0.89    0.45 
  -2   6   5    0.63    0.45 
  -2   6   5    1.73    0.75 
  -2   6   5    2.80    0.67 
  -2   6   5    0.94    0.44 
  -2   6   5    1.08    0.45 
  -2   6   5    1.03    0.36 
  -2   6   5    1.20    0.37 
  -2   6   4    4.05    0.62 
  -2   6   4    4.64    0.62 
  -2   6   4    5.20    0.89 
  -2   6   4    7.55    0.78 
  -2   6   4    5.80    0.79 
  -2   6   4    7.87    0.50 
  -2   6   4    7.71    0.50 
  -2   6   3    0.88    0.30 
  -2   6   3    0.99    0.31 
  -2   6   3    1.34    0.77 
  -2   6   3    0.67    0.49 
  -2   6   3    0.17    0.47 
  -2   6   3   -0.15    0.51 
  -2   6   3    0.98    0.54 
  -2   6   3    0.41    0.49 
  -2   6   2   -0.11    0.31 
  -2   6   2   -0.14    0.32 
  -2   6   2   -0.16    0.81 
  -2   6   2   -0.30    0.83 
  -2   6   2    0.30    0.47 
  -2   6   2    0.16    0.45 
  -2   6   2   -0.43    0.51 
  -2   6   2   -0.10    0.46 
  -2   6   2    0.15    0.48 
  -2   6   1    0.13    0.34 
  -2   6   1    0.24    0.34 
  -2   6   1    0.12    0.95 
  -2   6   1    0.96    0.90 
  -2   6   1    0.40    0.87 
  -2   6   1    0.02    0.54 
  -2   6   1   -0.07    0.57 
  -2   6   1    0.24    0.53 
  -2   6   1    0.54    0.53 
  -2   6   1    0.20    0.47 
  -2   6   0   10.21    0.73 
  -2   6   0   11.44    0.68 
  -2   6   0    9.24    0.97 
  -2   6   0   12.96    0.57 
  -2   6   0   12.02    0.56 
  -2   6   0    9.09    1.15 
  -2   6   0    7.41    1.06 
  -2   6   0    8.34    1.02 
  -2   6   0    0.74    2.40 
  -2   6   0    7.27    0.82 
  -2   6   0    7.11    0.83 
  -2   6   0   11.14    0.78 
  -2   6   0    1.54    0.92 
  -2   6   0    2.79    0.87 
  -2   6   0    9.88    1.03 
  -2   6  -1    0.97    0.50 
  -2   6  -1    0.37    0.51 
  -2   6  -1    1.40    0.53 
  -2   6  -1    0.30    0.54 
  -2   6  -1    1.22    0.38 
  -2   6  -1    0.91    0.39 
  -2   6  -1   -0.07    0.99 
  -2   6  -1    0.03    0.90 
  -2   6  -1    0.20    0.98 
  -2   6  -1    0.02    0.64 
  -2   6  -1    0.19    0.63 
  -2   6  -1    0.42    0.53 
  -2   6  -1   -0.20    0.75 
  -2   6  -1    0.21    0.80 
  -2   6  -1    0.27    0.98 
  -2   6  -2    2.14    0.53 
  -2   6  -2    2.07    0.50 
  -2   6  -2    3.39    0.62 
  -2   6  -2    0.98    0.92 
  -2   6  -2    0.20    0.97 
  -2   6  -2    1.76    1.12 
  -2   6  -2    3.39    0.43 
  -2   6  -2    3.99    0.44 
  -2   6  -2    2.55    1.01 
  -2   6  -2    0.42    2.02 
  -2   6  -2    3.61    1.03 
  -2   6  -2    2.42    0.69 
  -2   6  -2    2.59    1.13 
  -2   6  -2    2.98    1.03 
  -2   6  -2    3.83    0.65 
  -2   6  -3    3.05    0.40 
  -2   6  -3    2.52    0.38 
  -2   6  -3    3.52    1.18 
  -2   6  -3    0.42    1.03 
  -2   6  -3    0.52    0.96 
  -2   6  -3    2.49    1.19 
  -2   6  -3    2.80    1.02 
  -2   6  -3    0.40    0.97 
  -2   6  -3    1.97    1.03 
  -2   6  -4    0.87    1.09 
  -2   6  -4    0.75    1.20 
  -2   6  -4    0.76    0.84 
  -2   6  -4    1.03    0.97 
  -2   6  -4    0.44    0.91 
  -2   6  -5    0.33    0.94 
  -2   6  -5    0.93    0.76 
  -2   6  -5    0.01    0.71 
  -2   6  -5   -0.06    0.73 
  -2   6  -5   -0.16    0.94 
  -2   6  -5    0.93    0.91 
  -2   6  -6    0.09    0.81 
  -2   6  -6   -0.70    0.67 
  -2   6  -6   -0.15    0.72 
  -2   6  -6   -0.02    0.60 
  -2   6  -6   -0.01    0.86 
  -2   6  -6    0.52    0.43 
  -2   6  -7   -0.16    0.67 
  -2   6  -7   -0.42    0.67 
  -2   6  -7   -0.06    0.61 
  -2   6  -7   -0.21    0.79 
  -2   6  -7   -0.15    0.85 
  -2   6  -8   -0.36    0.55 
  -2   6  -8   -0.01    0.51 
  -2   6  -8    1.71    0.89 
  -2   6  -8    0.21    0.53 
  -2   6  -8    0.31    0.58 
  -2   6  -9    0.89    0.66 
  -2   5  10    1.04    0.26 
  -2   5   9    0.09    0.47 
  -2   5   9    0.96    0.46 
  -2   5   8   -0.60    0.63 
  -2   5   8    0.70    0.52 
  -2   5   8   -0.38    0.41 
  -2   5   8   -0.58    0.43 
  -2   5   7   -0.49    0.48 
  -2   5   7   -0.38    0.46 
  -2   5   7   -0.11    0.59 
  -2   5   7    0.35    0.70 
  -2   5   7   -0.03    0.49 
  -2   5   7   -0.01    0.50 
  -2   5   6    0.94    0.52 
  -2   5   6    0.92    0.51 
  -2   5   6    2.08    0.56 
  -2   5   6    2.37    0.57 
  -2   5   6    1.66    0.64 
  -2   5   6    0.77    0.78 
  -2   5   5    0.74    0.39 
  -2   5   5    0.69    0.37 
  -2   5   5    1.08    0.67 
  -2   5   5    1.16    0.77 
  -2   5   5   -0.11    0.52 
  -2   5   5    0.41    0.52 
  -2   5   5    1.06    0.52 
  -2   5   5    0.33    0.51 
  -2   5   5    0.62    0.51 
  -2   5   4    5.22    0.45 
  -2   5   4    5.44    0.45 
  -2   5   4    4.19    0.71 
  -2   5   4    3.66    0.83 
  -2   5   4    3.99    0.65 
  -2   5   4    3.18    0.62 
  -2   5   4    5.03    0.56 
  -2   5   4    4.65    0.55 
  -2   5   4    4.28    0.71 
  -2   5   3    0.94    0.51 
  -2   5   3    1.16    0.31 
  -2   5   3    0.92    0.30 
  -2   5   3    0.93    0.31 
  -2   5   3    1.09    0.30 
  -2   5   3    0.94    0.68 
  -2   5   3    1.28    0.63 
  -2   5   3    0.63    0.48 
  -2   5   3    1.12    0.51 
  -2   5   3    1.12    0.46 
  -2   5   3    1.58    0.51 
  -2   5   3    0.90    0.38 
  -2   5   3    0.70    0.37 
  -2   5   2    5.03    0.71 
  -2   5   2    4.97    0.36 
  -2   5   2    5.27    0.36 
  -2   5   2    6.60    0.41 
  -2   5   2    6.52    0.40 
  -2   5   2    5.38    0.78 
  -2   5   2    6.09    0.69 
  -2   5   2    4.55    0.60 
  -2   5   2    4.91    0.62 
  -2   5   2    6.13    0.57 
  -2   5   2    6.43    0.59 
  -2   5   1   19.68    0.85 
  -2   5   1   12.43    0.97 
  -2   5   1   19.36    0.61 
  -2   5   1   18.18    0.59 
  -2   5   1   13.45    1.03 
  -2   5   1   13.55    1.05 
  -2   5   1    8.65    0.91 
  -2   5   1   12.04    0.89 
  -2   5   1   13.30    0.91 
  -2   5   1   14.28    1.08 
  -2   5   1   18.59    0.80 
  -2   5   0    0.79    0.41 
  -2   5   0    0.93    0.43 
  -2   5   0    1.09    0.40 
  -2   5   0    0.86    0.48 
  -2   5   0    1.16    0.30 
  -2   5   0    1.22    0.31 
  -2   5   0    0.74    0.77 
  -2   5   0    1.09    0.73 
  -2   5   0    0.62    0.55 
  -2   5   0    0.98    0.54 
  -2   5   0    1.19    0.56 
  -2   5   0    0.50    0.59 
  -2   5   0    1.00    0.49 
  -2   5  -1    0.33    0.40 
  -2   5  -1    0.42    0.42 
  -2   5  -1    0.63    0.43 
  -2   5  -1    0.48    0.51 
  -2   5  -1    0.34    0.30 
  -2   5  -1    0.17    0.30 
  -2   5  -1    0.93    0.76 
  -2   5  -1   -0.09    0.84 
  -2   5  -1    0.42    0.76 
  -2   5  -1    0.43    0.58 
  -2   5  -1    0.47    0.58 
  -2   5  -1    0.24    0.81 
  -2   5  -1    0.42    0.69 
  -2   5  -1    0.44    0.45 
  -2   5  -1    0.44    0.60 
  -2   5  -1    0.23    0.66 
  -2   5  -2    5.14    0.80 
  -2   5  -2    7.82    0.47 
  -2   5  -2    7.97    0.49 
  -2   5  -2    7.91    0.94 
  -2   5  -2    0.49    1.92 
  -2   5  -2    5.20    0.99 
  -2   5  -2    8.70    0.93 
  -2   5  -2    6.76    1.23 
  -2   5  -2    8.14    0.92 
  -2   5  -2    5.51    0.55 
  -2   5  -2    4.17    0.53 
  -2   5  -2    7.97    0.76 
  -2   5  -2    8.95    1.19 
  -2   5  -3    8.19    1.04 
  -2   5  -3   17.59    0.63 
  -2   5  -3   19.13    0.66 
  -2   5  -3    8.67    1.19 
  -2   5  -3    4.51    1.12 
  -2   5  -3   18.08    1.80 
  -2   5  -3   18.85    1.61 
  -2   5  -3   17.06    1.07 
  -2   5  -3   18.32    1.12 
  -2   5  -4    4.54    0.40 
  -2   5  -4    4.43    1.38 
  -2   5  -4    5.58    1.19 
  -2   5  -4    1.84    1.09 
  -2   5  -4    4.04    0.97 
  -2   5  -4    0.42    1.14 
  -2   5  -4    6.56    1.00 
  -2   5  -4    5.35    0.93 
  -2   5  -4    5.35    0.74 
  -2   5  -5    0.26    1.06 
  -2   5  -5   -0.09    0.86 
  -2   5  -5    0.09    0.56 
  -2   5  -5    0.53    0.83 
  -2   5  -5    0.30    0.88 
  -2   5  -5   -0.74    1.03 
  -2   5  -5   -0.72    0.95 
  -2   5  -6    0.56    0.51 
  -2   5  -6    0.28    0.85 
  -2   5  -6    0.64    0.93 
  -2   5  -6   -1.10    1.05 
  -2   5  -6    1.34    1.75 
  -2   5  -6   -0.35    1.01 
  -2   5  -6   -0.13    1.12 
  -2   5  -6    0.62    1.02 
  -2   5  -6    0.43    1.12 
  -2   5  -6   -0.50    0.78 
  -2   5  -7    1.67    1.11 
  -2   5  -7    1.62    0.94 
  -2   5  -7    0.88    1.01 
  -2   5  -7   -1.02    1.70 
  -2   5  -7    0.83    0.41 
  -2   5  -7    3.09    0.87 
  -2   5  -7    3.74    0.93 
  -2   5  -7    0.40    1.05 
  -2   5  -7    0.30    0.93 
  -2   5  -8    1.41    0.90 
  -2   5  -8   -1.07    1.55 
  -2   5  -8    2.64    0.82 
  -2   5  -8    0.04    0.87 
  -2   5  -8   -0.14    1.08 
  -2   5  -8    0.03    0.81 
  -2   5  -8    3.08    0.79 
  -2   5  -8    3.50    0.84 
  -2   5  -9    0.68    1.35 
  -2   5  -9    0.57    0.65 
  -2   5  -9    2.35    1.00 
  -2   5  -9    0.05    0.85 
  -2   5  -9    1.04    0.61 
  -2   5  -9    1.33    0.59 
  -2   5  -9    2.07    0.65 
  -2   5 -10    0.35    0.71 
  -2   5 -10    0.04    0.55 
  -2   4  10    0.47    0.45 
  -2   4  10    0.46    0.37 
  -2   4   9    1.05    0.52 
  -2   4   9    1.13    0.66 
  -2   4   9    3.25    0.51 
  -2   4   9    3.25    0.50 
  -2   4   8    1.35    0.60 
  -2   4   8    2.65    0.56 
  -2   4   8    2.88    0.58 
  -2   4   7   -0.10    0.49 
  -2   4   7    0.18    0.47 
  -2   4   7    0.01    0.55 
  -2   4   7   -0.05    0.56 
  -2   4   7    0.87    0.80 
  -2   4   7    0.10    0.52 
  -2   4   6   49.14    1.21 
  -2   4   6   48.18    1.21 
  -2   4   6   48.65    1.75 
  -2   4   6   49.13    1.54 
  -2   4   6   29.55    1.45 
  -2   4   6   30.04    1.47 
  -2   4   6   35.37    1.62 
  -2   4   6   50.65    1.39 
  -2   4   6   49.58    1.39 
  -2   4   5   11.89    0.57 
  -2   4   5   10.30    0.50 
  -2   4   5   12.51    0.57 
  -2   4   5   12.46    0.98 
  -2   4   5   12.40    0.80 
  -2   4   5    7.31    0.75 
  -2   4   5    8.22    0.77 
  -2   4   5    8.53    0.85 
  -2   4   5   12.52    0.70 
  -2   4   5   11.76    0.71 
  -2   4   4    0.31    0.29 
  -2   4   4    0.10    0.23 
  -2   4   4    0.34    0.27 
  -2   4   4   -0.61    0.61 
  -2   4   4   -0.12    0.43 
  -2   4   4   -0.02    0.41 
  -2   4   4    0.35    0.42 
  -2   4   4   -0.01    0.38 
  -2   4   4    0.13    0.38 
  -2   4   3    3.21    0.39 
  -2   4   3    3.69    0.39 
  -2   4   3    4.25    0.33 
  -2   4   3    3.46    0.31 
  -2   4   3    4.28    0.32 
  -2   4   3    3.86    0.28 
  -2   4   3    3.29    0.31 
  -2   4   3    4.39    0.48 
  -2   4   3    4.25    0.56 
  -2   4   3    4.64    0.56 
  -2   4   3    3.06    0.54 
  -2   4   3    4.38    0.46 
  -2   4   2   16.23    0.52 
  -2   4   2   17.18    0.53 
  -2   4   2   18.97    0.55 
  -2   4   2   19.40    0.55 
  -2   4   2   21.31    0.77 
  -2   4   2   14.33    0.84 
  -2   4   2   14.13    0.83 
  -2   4   2   16.12    0.92 
  -2   4   2   20.62    0.74 
  -2   4   1   25.19    0.79 
  -2   4   1   20.15    0.67 
  -2   4   1   17.97    0.52 
  -2   4   1   21.76    0.59 
  -2   4   1   18.42    0.51 
  -2   4   1   22.65    0.59 
  -2   4   1   17.94    1.01 
  -2   4   1   19.21    0.85 
  -2   4   1   14.98    0.78 
  -2   4   1   25.45    0.81 
  -2   4   1   19.40    0.97 
  -2   4   1   17.77    0.90 
  -2   4   1   17.89    0.91 
  -2   4   0    3.34    0.39 
  -2   4   0    2.94    0.51 
  -2   4   0    3.61    0.30 
  -2   4   0    3.63    0.30 
  -2   4   0    2.91    0.39 
  -2   4   0    3.37    0.42 
  -2   4   0    2.27    0.64 
  -2   4   0    3.24    0.53 
  -2   4   0    3.17    0.54 
  -2   4   0    3.45    0.57 
  -2   4  -1   18.54    0.89 
  -2   4  -1   19.25    0.92 
  -2   4  -1   20.51    1.03 
  -2   4  -1   22.75    0.62 
  -2   4  -1   23.01    0.62 
  -2   4  -1   16.11    0.71 
  -2   4  -1   16.09    0.71 
  -2   4  -1   25.02    1.13 
  -2   4  -1   23.87    1.13 
  -2   4  -1   22.45    1.40 
  -2   4  -1   21.27    1.02 
  -2   4  -1   22.50    1.30 
  -2   4  -2    0.55    0.36 
  -2   4  -2    1.09    0.69 
  -2   4  -2    0.61    0.44 
  -2   4  -2    0.86    0.27 
  -2   4  -2    0.98    0.27 
  -2   4  -2    0.62    0.57 
  -2   4  -2    0.08    0.61 
  -2   4  -2    1.17    0.58 
  -2   4  -2    0.64    0.31 
  -2   4  -2    0.35    0.32 
  -2   4  -2    0.76    0.81 
  -2   4  -2    0.91    0.60 
  -2   4  -2    0.31    0.58 
  -2   4  -3    5.12    0.59 
  -2   4  -3    4.59    0.76 
  -2   4  -3    5.55    0.81 
  -2   4  -3    3.68    0.77 
  -2   4  -3    4.09    0.36 
  -2   4  -3    4.38    0.37 
  -2   4  -3    5.03    1.13 
  -2   4  -3    4.13    1.01 
  -2   4  -4   -0.33    0.91 
  -2   4  -4    0.47    0.52 
  -2   4  -4    1.40    0.77 
  -2   4  -4    1.69    0.81 
  -2   4  -4    0.50    1.09 
  -2   4  -4    0.71    0.65 
  -2   4  -4    0.82    1.16 
  -2   4  -4    0.60    0.90 
  -2   4  -4    1.35    0.98 
  -2   4  -4   -0.70    1.07 
  -2   4  -4    0.77    0.65 
  -2   4  -4    1.07    0.93 
  -2   4  -4    0.06    0.74 
  -2   4  -5    1.91    0.89 
  -2   4  -5    2.44    0.97 
  -2   4  -5    2.14    0.62 
  -2   4  -5    1.59    1.29 
  -2   4  -5    2.11    0.77 
  -2   4  -5    1.01    0.93 
  -2   4  -5    0.54    1.16 
  -2   4  -5    2.87    1.36 
  -2   4  -5    3.44    1.09 
  -2   4  -5    3.32    1.16 
  -2   4  -5    0.68    1.06 
  -2   4  -5   -0.25    0.93 
  -2   4  -6    0.84    0.93 
  -2   4  -6   -0.22    0.56 
  -2   4  -6    0.83    1.01 
  -2   4  -6   -0.04    1.18 
  -2   4  -6   -0.15    0.68 
  -2   4  -6    0.09    0.83 
  -2   4  -6    0.36    1.14 
  -2   4  -6    0.90    1.41 
  -2   4  -6    1.37    1.08 
  -2   4  -6    1.05    1.17 
  -2   4  -6   -1.50    1.07 
  -2   4  -7    1.25    1.05 
  -2   4  -7    0.82    0.45 
  -2   4  -7    1.55    0.99 
  -2   4  -7    1.82    1.19 
  -2   4  -7    2.14    0.76 
  -2   4  -7    1.05    0.81 
  -2   4  -7    0.60    1.14 
  -2   4  -7    0.68    1.41 
  -2   4  -7    2.17    1.06 
  -2   4  -7    4.41    1.16 
  -2   4  -7    0.06    1.10 
  -2   4  -8    7.14    1.34 
  -2   4  -8    8.12    0.95 
  -2   4  -8    6.85    1.44 
  -2   4  -8    6.47    1.05 
  -2   4  -8    5.77    1.11 
  -2   4  -8    8.37    1.13 
  -2   4  -8    7.61    1.05 
  -2   4  -8    3.94    1.04 
  -2   4  -9    3.28    1.68 
  -2   4  -9    1.63    0.80 
  -2   4  -9    3.67    0.88 
  -2   4  -9    1.74    1.16 
  -2   4  -9    0.09    1.11 
  -2   4  -9    1.31    0.81 
  -2   4  -9    1.63    0.85 
  -2   4  -9    1.24    0.85 
  -2   4 -10    0.97    1.39 
  -2   4 -10    0.55    0.62 
  -2   4 -10    0.53    0.65 
  -2   4 -10    0.74    0.97 
  -2   4 -10   -0.02    0.81 
  -2   4 -10   -0.23    0.54 
  -2   4 -10   -0.27    0.60 
  -2   3  10   -0.42    0.46 
  -2   3   9    3.19    0.55 
  -2   3   9    2.17    0.57 
  -2   3   9    2.11    0.57 
  -2   3   8    0.49    0.43 
  -2   3   8    0.37    0.43 
  -2   3   8    0.29    0.81 
  -2   3   8    0.46    0.52 
  -2   3   8    0.07    0.56 
  -2   3   8    0.40    0.53 
  -2   3   7    2.36    0.48 
  -2   3   7    1.77    0.47 
  -2   3   7    3.73    0.88 
  -2   3   7    2.80    0.59 
  -2   3   7    3.04    0.70 
  -2   3   7    2.62    0.69 
  -2   3   6   12.01    0.98 
  -2   3   6   10.41    0.73 
  -2   3   6    9.16    0.84 
  -2   3   6    9.45    0.85 
  -2   3   6    8.06    0.53 
  -2   3   6   14.54    0.75 
  -2   3   6   13.92    0.76 
  -2   3   5    1.65    0.29 
  -2   3   5    1.76    0.32 
  -2   3   5    1.68    0.31 
  -2   3   5    1.48    0.60 
  -2   3   5    1.54    0.44 
  -2   3   5    1.59    0.47 
  -2   3   5    1.32    0.47 
  -2   3   5    2.17    0.44 
  -2   3   5    2.14    0.45 
  -2   3   5    1.33    0.44 
  -2   3   4    5.11    0.34 
  -2   3   4    5.78    0.34 
  -2   3   4    5.49    0.31 
  -2   3   4    4.48    0.54 
  -2   3   4    4.15    0.54 
  -2   3   4    4.07    0.54 
  -2   3   4    5.25    0.43 
  -2   3   4    5.49    0.43 
  -2   3   3   37.03    0.93 
  -2   3   3   35.03    0.92 
  -2   3   3   41.37    0.89 
  -2   3   3   38.06    0.82 
  -2   3   3   40.71    0.88 
  -2   3   3   46.05    1.08 
  -2   3   3   35.63    1.26 
  -2   3   3   36.68    1.29 
  -2   3   3   43.46    1.04 
  -2   3   3   37.11    1.27 
  -2   3   2    8.16    0.40 
  -2   3   2    8.61    0.34 
  -2   3   2    8.68    0.35 
  -2   3   2    7.98    0.33 
  -2   3   2    9.16    0.35 
  -2   3   2    8.75    0.30 
  -2   3   2   10.87    0.51 
  -2   3   2    7.80    0.60 
  -2   3   2    8.24    0.61 
  -2   3   2    8.33    0.60 
  -2   3   2   10.63    0.48 
  -2   3   1   48.17    1.06 
  -2   3   1   50.05    1.37 
  -2   3   1   48.78    0.98 
  -2   3   1   50.50    0.98 
  -2   3   1   60.05    1.20 
  -2   3   1   48.71    1.42 
  -2   3   1   47.55    1.41 
  -2   3   1   43.02    1.37 
  -2   3   1   59.50    1.17 
  -2   3   0   66.70    1.68 
  -2   3   0   74.02    1.32 
  -2   3   0   74.81    1.32 
  -2   3   0   74.37    1.77 
  -2   3   0   72.54    1.85 
  -2   3   0   75.14    1.86 
  -2   3   0   80.50    1.91 
  -2   3   0   71.32    1.43 
  -2   3  -1   11.63    1.08 
  -2   3  -1   14.31    0.43 
  -2   3  -1   14.71    0.44 
  -2   3  -1   16.27    0.92 
  -2   3  -1   12.19    1.03 
  -2   3  -1   16.20    0.91 
  -2   3  -1   12.91    0.68 
  -2   3  -1   12.54    0.93 
  -2   3  -1   15.65    0.88 
  -2   3  -1   15.22    0.83 
  -2   3  -1   18.69    1.05 
  -2   3  -1   13.39    0.71 
  -2   3  -2  220.70    3.96 
  -2   3  -2  218.63    5.09 
  -2   3  -2  194.07    4.04 
  -2   3  -2  231.97    4.74 
  -2   3  -2  254.15    4.72 
  -2   3  -2  253.88    4.66 
  -2   3  -2  233.59    4.97 
  -2   3  -2  252.43    4.34 
  -2   3  -2  262.29    4.78 
  -2   3  -2  264.19    4.51 
  -2   3  -2  193.73    4.32 
  -2   3  -3   83.72    1.91 
  -2   3  -3  111.42    3.28 
  -2   3  -3  110.74    2.50 
  -2   3  -3   97.91    2.88 
  -2   3  -3  103.31    3.07 
  -2   3  -3   71.11    2.15 
  -2   3  -3  102.19    2.41 
  -2   3  -3  124.40    2.96 
  -2   3  -3  110.13    2.56 
  -2   3  -3   84.69    2.01 
  -2   3  -3   83.39    1.98 
  -2   3  -3   93.36    2.43 
  -2   3  -4   23.40    1.01 
  -2   3  -4   33.31    2.10 
  -2   3  -4   38.12    1.46 
  -2   3  -4   24.28    1.65 
  -2   3  -4   28.25    1.88 
  -2   3  -4   24.55    1.39 
  -2   3  -4   37.18    1.60 
  -2   3  -4   23.81    1.19 
  -2   3  -4   43.38    1.97 
  -2   3  -4   31.58    1.44 
  -2   3  -5    3.46    0.78 
  -2   3  -5    5.87    1.18 
  -2   3  -5    4.75    1.09 
  -2   3  -5    3.24    0.78 
  -2   3  -5    3.97    0.76 
  -2   3  -5    3.10    0.61 
  -2   3  -5    5.09    1.41 
  -2   3  -5    7.27    0.89 
  -2   3  -5    4.70    1.17 
  -2   3  -5    4.66    0.88 
  -2   3  -5    5.19    1.04 
  -2   3  -6    5.91    1.40 
  -2   3  -6    1.50    0.78 
  -2   3  -6    2.78    1.14 
  -2   3  -6    2.29    1.10 
  -2   3  -6    1.78    0.74 
  -2   3  -6    1.83    0.77 
  -2   3  -6    0.64    0.54 
  -2   3  -6    2.99    1.32 
  -2   3  -6    3.48    0.83 
  -2   3  -6    0.73    0.96 
  -2   3  -6    2.68    1.16 
  -2   3  -6    2.95    0.95 
  -2   3  -6    2.52    0.75 
  -2   3  -7   27.54    2.15 
  -2   3  -7   38.83    1.70 
  -2   3  -7   22.44    1.35 
  -2   3  -7   45.55    2.24 
  -2   3  -7   27.72    1.61 
  -2   3  -7   31.11    1.71 
  -2   3  -7   21.61    1.81 
  -2   3  -7   17.65    1.48 
  -2   3  -7   11.92    1.53 
  -2   3  -8    7.88    1.04 
  -2   3  -8    9.02    1.57 
  -2   3  -8    5.25    1.20 
  -2   3  -8    5.80    1.14 
  -2   3  -8    3.93    1.15 
  -2   3  -8    5.19    1.36 
  -2   3  -9    7.93    1.02 
  -2   3  -9    7.79    0.97 
  -2   3  -9    5.95    1.33 
  -2   3  -9    9.47    1.58 
  -2   3  -9    5.69    1.18 
  -2   3 -10    2.10    1.62 
  -2   3 -10    1.17    0.76 
  -2   3 -10    1.37    0.80 
  -2   3 -10    0.43    1.14 
  -2   3 -10   -0.23    0.97 
  -2   3 -10    1.62    0.71 
  -2   3 -10    0.31    0.71 
  -2   3 -11    0.22    0.56 
  -2   3 -11    0.45    0.61 
  -2   3 -11    0.10    0.72 
  -2   2  10    1.58    1.16 
  -2   2  10    0.65    0.88 
  -2   2  10    0.34    0.41 
  -2   2  10    0.36    0.43 
  -2   2   9    1.01    1.03 
  -2   2   9    0.63    0.54 
  -2   2   9    0.47    0.54 
  -2   2   8  162.50    2.94 
  -2   2   8  184.86    3.70 
  -2   2   8   89.86    2.20 
  -2   2   8   77.68    1.90 
  -2   2   8   76.53    1.89 
  -2   2   7    0.82    0.46 
  -2   2   7    1.96    0.49 
  -2   2   7    1.98    0.48 
  -2   2   7    1.01    0.54 
  -2   2   7    2.69    1.11 
  -2   2   7    2.18    0.84 
  -2   2   6   49.21    1.92 
  -2   2   6   46.79    1.35 
  -2   2   5   15.99    0.65 
  -2   2   5   14.90    0.64 
  -2   2   4    4.43    0.48 
  -2   2   4    4.73    0.39 
  -2   2   4    4.63    0.39 
  -2   2   4    5.00    0.31 
  -2   2   4    4.61    0.28 
  -2   2   4    5.12    0.30 
  -2   2   3  148.79    2.57 
  -2   2   3  154.10    2.62 
  -2   2   3  167.13    2.75 
  -2   2   3  155.35    2.62 
  -2   2   3  163.54    3.05 
  -2   2   3  147.69    2.67 
  -2   2   3  146.10    2.67 
  -2   2   2  151.52    2.54 
  -2   2   2  148.96    2.54 
  -2   2   1   76.22    1.60 
  -2   2   0  353.39    5.87 
  -2   2  -1  252.86    4.94 
  -2   2  -1  255.22    4.74 
  -2   2  -1  252.92    4.59 
  -2   2  -1  241.75    4.30 
  -2   2  -2  448.64    8.05 
  -2   2  -2  444.54    7.78 
  -2   2  -2  433.06    7.52 
  -2   2  -3   47.93    1.44 
  -2   2  -3   47.78    1.98 
  -2   2  -3   40.65    1.79 
  -2   2  -3   47.92    6.03 
  -2   2  -3   36.30    1.30 
  -2   2  -3   44.14    1.85 
  -2   2  -3   39.75    1.79 
  -2   2  -3   39.14    1.61 
  -2   2  -3   35.56    1.24 
  -2   2  -3   33.73    1.25 
  -2   2  -4  153.35    3.15 
  -2   2  -4  135.98    3.69 
  -2   2  -4  173.09    4.20 
  -2   2  -4  191.31    3.38 
  -2   2  -4  150.89    3.21 
  -2   2  -4  196.41    3.92 
  -2   2  -4  168.73    3.39 
  -2   2  -4  117.50    2.93 
  -2   2  -4  158.14    3.90 
  -2   2  -4  131.00    3.51 
  -2   2  -4  139.40    3.72 
  -2   2  -4  115.06    2.89 
  -2   2  -4  116.94    2.89 
  -2   2  -5   33.78    1.39 
  -2   2  -5   36.04    1.37 
  -2   2  -5   43.66    1.93 
  -2   2  -5   51.92    2.32 
  -2   2  -5   44.39    2.02 
  -2   2  -5   57.82    1.74 
  -2   2  -5   48.42    1.79 
  -2   2  -5   44.94    1.67 
  -2   2  -5   58.00    2.23 
  -2   2  -5   37.37    1.44 
  -2   2  -5   44.80    2.14 
  -2   2  -5   39.30    1.52 
  -2   2  -5   32.21    1.83 
  -2   2  -5   42.41    1.97 
  -2   2  -6    2.51    0.70 
  -2   2  -6    1.88    0.72 
  -2   2  -6    3.82    0.91 
  -2   2  -6    2.51    0.99 
  -2   2  -6    2.82    1.01 
  -2   2  -6    3.66    1.23 
  -2   2  -6    4.37    0.78 
  -2   2  -6    2.45    0.78 
  -2   2  -6    5.27    1.29 
  -2   2  -6    4.69    1.15 
  -2   2  -6    3.68    0.69 
  -2   2  -6    3.35    0.94 
  -2   2  -7    5.94    1.11 
  -2   2  -7    4.10    1.11 
  -2   2  -7    4.56    1.32 
  -2   2  -7    5.13    1.20 
  -2   2  -7    5.64    0.93 
  -2   2  -7    4.17    0.87 
  -2   2  -7    7.96    1.39 
  -2   2  -7    4.02    1.13 
  -2   2  -7    4.40    0.78 
  -2   2  -7    3.04    0.81 
  -2   2  -7    4.06    0.86 
  -2   2  -8  142.93    4.15 
  -2   2  -8  145.72    4.27 
  -2   2  -8  126.11    4.06 
  -2   2  -8  176.25    3.82 
  -2   2  -8  117.25    3.09 
  -2   2  -8  121.61    3.07 
  -2   2  -8  140.14    4.22 
  -2   2  -8  159.01    4.47 
  -2   2  -8  113.56    3.01 
  -2   2  -8  151.40    3.87 
  -2   2  -8  129.12    3.20 
  -2   2  -8  126.77    3.16 
  -2   2  -8  101.17    3.45 
  -2   2  -9    5.27    1.21 
  -2   2  -9    4.03    1.12 
  -2   2  -9    4.18    1.16 
  -2   2  -9    5.02    1.03 
  -2   2  -9    4.50    1.09 
  -2   2  -9    4.04    0.86 
  -2   2  -9    4.14    0.89 
  -2   2  -9    3.26    0.89 
  -2   2  -9    5.62    1.53 
  -2   2  -9    4.54    1.26 
  -2   2  -9    3.94    1.01 
  -2   2  -9    3.75    0.96 
  -2   2 -10    2.54    1.34 
  -2   2 -10    1.70    1.07 
  -2   2 -10    4.82    0.84 
  -2   2 -10    3.99    0.81 
  -2   2 -10    2.90    0.92 
  -2   2 -11   -0.15    0.83 
  -2   2 -11    2.64    1.61 
  -2   1  11    0.09    0.32 
  -2   1  11    0.56    0.29 
  -2   1  11    1.44    0.52 
  -2   1  11    0.15    0.83 
  -2   1  11    0.15    0.58 
  -2   1  10    0.04    0.46 
  -2   1  10    0.02    0.45 
  -2   1  10    0.13    0.43 
  -2   1  10    0.02    0.43 
  -2   1  10    0.11    0.66 
  -2   1  10   -0.32    0.36 
  -2   1  10   -0.10    0.98 
  -2   1  10   -0.11    0.73 
  -2   1   9  125.62    2.92 
  -2   1   9   14.64    2.04 
  -2   1   9   59.07    1.97 
  -2   1   9   60.28    1.98 
  -2   1   9    6.04    1.29 
  -2   1   9   10.49    1.31 
  -2   1   9   64.43    1.55 
  -2   1   9   73.05    1.93 
  -2   1   9   68.41    1.53 
  -2   1   9   49.37    1.12 
  -2   1   8   47.76    1.26 
  -2   1   8   44.70    1.24 
  -2   1   8   94.40    2.62 
  -2   1   8    9.67    1.93 
  -2   1   8   55.28    1.79 
  -2   1   8   50.46    1.48 
  -2   1   8   52.49    1.45 
  -2   1   8   45.97    1.84 
  -2   1   8   50.41    1.92 
  -2   1   7   32.28    0.96 
  -2   1   7   34.88    1.53 
  -2   1   7   35.44    1.54 
  -2   1   7   66.32    2.15 
  -2   1   7   61.44    1.70 
  -2   1   7   38.77    1.44 
  -2   1   7   36.62    1.23 
  -2   1   7   33.10    1.15 
  -2   1   6    7.57    0.70 
  -2   1   6    6.61    0.66 
  -2   1   6    7.16    0.52 
  -2   1   6    6.97    0.51 
  -2   1   6    8.65    0.71 
  -2   1   6    6.31    0.51 
  -2   1   6    7.72    0.58 
  -2   1   6    5.46    0.42 
  -2   1   5    0.11    0.34 
  -2   1   5   -0.03    0.26 
  -2   1   5    0.03    0.32 
  -2   1   4   70.25    1.74 
  -2   1   4   69.05    1.73 
  -2   1   4   64.57    1.26 
  -2   1   3  204.70    3.85 
  -2   1   3  200.45    3.83 
  -2   1   2  685.65   11.30 
  -2   1   2  702.25   11.32 
  -2   1   2  690.97   11.18 
  -2   1   1  175.34    3.15 
  -2   1   1  177.45    3.16 
  -2   1   0   14.08    0.41 
  -2   1  -1  246.04    3.96 
  -2   1  -1  255.13    4.49 
  -2   1  -2    1.33    0.35 
  -2   1  -2    2.36    0.53 
  -2   1  -2    2.37    0.56 
  -2   1  -2    2.57    0.58 
  -2   1  -2    2.37    0.71 
  -2   1  -3  375.14    6.46 
  -2   1  -3  298.01    6.18 
  -2   1  -3  426.30    5.96 
  -2   1  -3  376.94    6.20 
  -2   1  -3  283.03    5.46 
  -2   1  -3  306.96    5.95 
  -2   1  -3  293.05    6.17 
  -2   1  -4   19.39    0.89 
  -2   1  -4   19.07    0.86 
  -2   1  -4   22.76    1.01 
  -2   1  -4   23.44    1.05 
  -2   1  -4   22.87    1.51 
  -2   1  -4   20.98    1.31 
  -2   1  -4   20.46    1.40 
  -2   1  -4   18.10    0.79 
  -2   1  -4   19.64    0.96 
  -2   1  -4   22.20    1.16 
  -2   1  -4   20.65    1.29 
  -2   1  -4   14.41    1.15 
  -2   1  -5   10.53    0.93 
  -2   1  -5    9.28    0.73 
  -2   1  -5    8.51    0.68 
  -2   1  -5   10.45    0.82 
  -2   1  -5    7.14    0.48 
  -2   1  -5   10.12    1.09 
  -2   1  -5    8.40    1.13 
  -2   1  -5    8.82    0.65 
  -2   1  -5    8.70    0.76 
  -2   1  -5    9.83    1.07 
  -2   1  -5   10.16    1.22 
  -2   1  -6    7.83    0.79 
  -2   1  -6    8.70    1.08 
  -2   1  -6    9.50    1.19 
  -2   1  -6    7.47    0.74 
  -2   1  -6    8.64    0.73 
  -2   1  -6    7.67    0.70 
  -2   1  -6    8.91    0.94 
  -2   1  -6    9.24    1.10 
  -2   1  -6    7.20    1.05 
  -2   1  -7    3.38    1.05 
  -2   1  -7    3.27    1.00 
  -2   1  -7    3.05    0.97 
  -2   1  -7    2.90    0.68 
  -2   1  -7    3.74    0.73 
  -2   1  -7    3.17    0.86 
  -2   1  -7    2.27    0.60 
  -2   1  -7    3.30    0.95 
  -2   1  -7    3.46    1.06 
  -2   1  -7    2.45    0.74 
  -2   1  -8   94.38    2.53 
  -2   1  -8   95.33    2.51 
  -2   1  -8  112.46    3.56 
  -2   1  -8   93.83    3.28 
  -2   1  -8  111.02    3.41 
  -2   1  -8   77.02    2.84 
  -2   1  -8  111.59    3.56 
  -2   1  -8  118.45    3.76 
  -2   1  -8   97.17    2.59 
  -2   1  -9    1.89    0.91 
  -2   1  -9    0.39    1.30 
  -2   1  -9    1.06    0.85 
  -2   1  -9    1.22    1.14 
  -2   1  -9    1.08    1.06 
  -2   1  -9    0.83    1.01 
  -2   1  -9    0.60    1.06 
  -2   1  -9    0.55    0.82 
  -2   1  -9    0.41    0.85 
  -2   1  -9    0.46    0.86 
  -2   1 -10    8.95    1.31 
  -2   1 -10    8.47    1.12 
  -2   1 -10   10.32    1.36 
  -2   1 -10    7.85    1.01 
  -2   1 -10    7.81    0.95 
  -2   1 -10    5.17    1.16 
  -2   1 -10    6.33    0.88 
  -2   1 -10    7.30    1.00 
  -2   1 -10    9.16    1.00 
  -2   1 -11    1.57    1.75 
  -2   1 -11    0.23    0.88 
  -2   0  11    0.19    0.59 
  -2   0  11    0.30    0.76 
  -2   0  10   14.06    0.92 
  -2   0  10   13.76    0.90 
  -2   0  10   16.64    0.96 
  -2   0  10   16.78    0.82 
  -2   0  10   14.26    0.65 
  -2   0  10   11.77    1.29 
  -2   0   9    0.26    0.51 
  -2   0   9    0.50    0.52 
  -2   0   9   -0.15    0.73 
  -2   0   9    0.22    0.40 
  -2   0   9    0.47    0.45 
  -2   0   9   -0.30    1.11 
  -2   0   9    0.10    0.57 
  -2   0   9   -0.30    0.86 
  -2   0   8   40.13    1.62 
  -2   0   8   39.37    1.62 
  -2   0   8   69.91    2.30 
  -2   0   8    3.60    1.47 
  -2   0   8   31.57    1.04 
  -2   0   8   30.90    0.99 
  -2   0   8   44.27    1.51 
  -2   0   8   38.92    1.19 
  -2   0   8   40.70    1.27 
  -2   0   7   -0.26    0.37 
  -2   0   7   -0.26    0.39 
  -2   0   7    0.10    0.41 
  -2   0   7   -0.24    0.38 
  -2   0   7   -0.04    0.43 
  -2   0   7   -0.25    0.53 
  -2   0   7   -0.27    0.46 
  -2   0   7   -0.20    0.91 
  -2   0   7   -0.29    0.68 
  -2   0   7   -0.13    0.53 
  -2   0   7   -0.10    0.35 
  -2   0   6   -0.27    0.45 
  -2   0   6   -0.01    0.35 
  -2   0   6   -0.15    0.32 
  -2   0   6    0.10    0.37 
  -2   0   6    0.00    0.31 
  -2   0   6    0.09    0.37 
  -2   0   6    0.16    0.38 
  -2   0   5    0.22    0.42 
  -2   0   5    0.52    0.35 
  -2   0   5    0.25    0.30 
  -2   0   5    0.25    0.37 
  -2   0   5    0.62    0.33 
  -2   0   5    0.30    0.28 
  -2   0   5    0.20    0.31 
  -2   0   4   16.57    0.60 
  -2   0   4   18.03    0.60 
  -2   0   4   17.04    0.84 
  -2   0   4   19.06    0.77 
  -2   0   4   19.51    0.78 
  -2   0   4   14.72    0.74 
  -2   0   4   14.95    0.51 
  -2   0   3  141.53    2.60 
  -2   0   3  139.11    2.60 
  -2   0   2   97.23    1.91 
  -2   0   1   36.61    0.88 
  -2   0   0  195.74    3.21 
  -2   0  -1  146.51    3.03 
  -2   0  -1  145.58    3.00 
  -2   0  -2    8.59    0.48 
  -2   0  -2    7.61    0.49 
  -2   0  -3  433.47    7.64 
  -2   0  -3  477.20    7.27 
  -2   0  -3  374.40    7.31 
  -2   0  -3  389.22    7.12 
  -2   0  -3  526.75    7.49 
  -2   0  -3  504.74    7.42 
  -2   0  -3  366.30    7.25 
  -2   0  -3  450.33    7.35 
  -2   0  -4   33.51    1.07 
  -2   0  -4   31.82    1.48 
  -2   0  -4   36.13    1.29 
  -2   0  -4   31.27    1.14 
  -2   0  -4   38.73    1.36 
  -2   0  -4   42.13    1.32 
  -2   0  -4   38.45    1.33 
  -2   0  -4   36.19    1.16 
  -2   0  -4   33.07    0.97 
  -2   0  -4   32.92    0.95 
  -2   0  -5    1.72    0.55 
  -2   0  -5    1.63    0.46 
  -2   0  -5    1.46    0.44 
  -2   0  -5    1.43    0.62 
  -2   0  -5    1.61    0.60 
  -2   0  -5    1.09    0.35 
  -2   0  -5    1.59    0.58 
  -2   0  -5    3.31    0.87 
  -2   0  -5    1.06    0.73 
  -2   0  -5    1.41    0.50 
  -2   0  -5   -1.09    1.04 
  -2   0  -5    1.53    0.57 
  -2   0  -5   -0.81    1.02 
  -2   0  -5    0.82    0.79 
  -2   0  -5    1.82    0.72 
  -2   0  -5    2.01    0.70 
  -2   0  -5    1.70    0.53 
  -2   0  -6   33.32    1.34 
  -2   0  -6   20.05    1.12 
  -2   0  -6   19.69    1.11 
  -2   0  -6   28.00    1.09 
  -2   0  -6   25.75    0.95 
  -2   0  -6   27.14    0.95 
  -2   0  -6   27.89    1.06 
  -2   0  -6   27.54    1.03 
  -2   0  -6   25.89    0.75 
  -2   0  -6   31.18    1.50 
  -2   0  -6   23.98    1.42 
  -2   0  -6   28.17    1.23 
  -2   0  -6   19.42    1.27 
  -2   0  -6   32.64    1.32 
  -2   0  -6   23.31    1.36 
  -2   0  -6   18.02    1.24 
  -2   0  -6   24.35    1.15 
  -2   0  -6   30.62    1.49 
  -2   0  -7   -0.74    0.89 
  -2   0  -7    0.45    0.63 
  -2   0  -7   -0.19    0.79 
  -2   0  -7    0.11    0.78 
  -2   0  -7    0.18    0.67 
  -2   0  -7    0.15    0.64 
  -2   0  -7    0.52    0.79 
  -2   0  -7    0.44    0.80 
  -2   0  -7    0.05    0.76 
  -2   0  -7    0.18    0.69 
  -2   0  -7    0.46    0.55 
  -2   0  -7   -0.21    0.57 
  -2   0  -7    0.16    0.62 
  -2   0  -7   -0.10    0.73 
  -2   0  -7   -0.11    0.63 
  -2   0  -8   -0.04    0.65 
  -2   0  -8    0.43    0.68 
  -2   0  -8    0.78    0.84 
  -2   0  -8    0.13    0.91 
  -2   0  -8    0.46    0.94 
  -2   0  -8   -0.21    0.83 
  -2   0  -8    0.25    0.75 
  -2   0  -8    0.47    0.82 
  -2   0  -8   -0.73    0.87 
  -2   0  -8   -1.12    0.88 
  -2   0  -8   -0.19    0.77 
  -2   0  -8   -0.54    0.79 
  -2   0  -8    0.17    0.52 
  -2   0  -9    8.14    1.18 
  -2   0  -9    7.91    0.98 
  -2   0  -9    8.28    0.99 
  -2   0  -9    8.06    0.94 
  -2   0  -9    9.32    1.32 
  -2   0  -9    6.73    1.10 
  -2   0  -9    8.06    1.29 
  -2   0  -9    9.47    1.18 
  -2   0 -10   11.60    1.05 
  -2   0 -10   10.65    1.05 
  -2   0 -10   13.14    1.46 
  -2   0 -10   12.32    1.41 
  -2   0 -10   12.27    1.09 
  -2   0 -11   -0.09    0.80 
  -2   0 -11    0.99    1.97 
  -2  -1  11    0.05    0.73 
  -2  -1  11    1.04    0.41 
  -2  -1  11    0.04    0.52 
  -2  -1  11    0.08    0.30 
  -2  -1  11    0.02    0.29 
  -2  -1  10   -0.03    0.41 
  -2  -1  10    0.75    0.41 
  -2  -1  10    0.10    0.37 
  -2  -1  10    0.16    0.39 
  -2  -1  10   -0.44    0.57 
  -2  -1  10    0.07    0.32 
  -2  -1  10   -0.02    0.51 
  -2  -1  10   -0.24    0.72 
  -2  -1  10   -1.74    1.00 
  -2  -1  10    0.03    0.40 
  -2  -1   9    0.84    0.49 
  -2  -1   9    1.35    0.46 
  -2  -1   9    1.67    0.50 
  -2  -1   9    1.74    0.49 
  -2  -1   9    1.59    0.48 
  -2  -1   9    0.92    0.49 
  -2  -1   9    1.61    0.50 
  -2  -1   9   -0.17    1.05 
  -2  -1   9   -0.17    0.82 
  -2  -1   9    1.57    0.60 
  -2  -1   9    2.18    0.64 
  -2  -1   9    1.47    0.41 
  -2  -1   8    2.55    0.50 
  -2  -1   8    2.39    0.50 
  -2  -1   8    2.02    0.62 
  -2  -1   8    0.68    0.42 
  -2  -1   8    1.28    0.56 
  -2  -1   8    1.75    0.52 
  -2  -1   8    1.56    0.52 
  -2  -1   8    1.20    0.43 
  -2  -1   8    1.31    0.47 
  -2  -1   8    3.17    1.07 
  -2  -1   8    0.13    0.78 
  -2  -1   8    0.74    0.63 
  -2  -1   7    1.17    0.40 
  -2  -1   7    1.27    0.50 
  -2  -1   7    0.28    0.63 
  -2  -1   7    1.18    0.43 
  -2  -1   7    0.76    0.38 
  -2  -1   7    1.10    0.45 
  -2  -1   7    0.92    0.50 
  -2  -1   7    0.99    0.43 
  -2  -1   7    0.54    0.55 
  -2  -1   6   24.01    0.74 
  -2  -1   6   25.51    0.78 
  -2  -1   6   17.99    1.06 
  -2  -1   6   23.32    1.06 
  -2  -1   6   22.33    1.03 
  -2  -1   6   19.23    1.12 
  -2  -1   6   18.02    0.69 
  -2  -1   5    0.21    0.47 
  -2  -1   5    0.57    0.34 
  -2  -1   5    0.51    0.32 
  -2  -1   5    0.56    0.33 
  -2  -1   5    0.24    0.31 
  -2  -1   5    0.34    0.40 
  -2  -1   5    0.63    0.33 
  -2  -1   4    1.90    0.48 
  -2  -1   4    3.41    0.32 
  -2  -1   4    3.15    0.33 
  -2  -1   4    2.93    0.37 
  -2  -1   4    2.41    0.43 
  -2  -1   4    2.39    0.36 
  -2  -1   3   27.04    0.92 
  -2  -1   3   25.29    0.98 
  -2  -1   2  280.31    4.55 
  -2  -1   2  255.04    4.72 
  -2  -1   1   21.29    0.76 
  -2  -1   1   20.05    0.61 
  -2  -1   0 1192.71   15.41 
  -2  -1   0 1242.79   15.24 
  -2  -1  -1   68.94    1.38 
  -2  -1  -1   59.68    1.08 
  -2  -1  -1   63.67    1.38 
  -2  -1  -1   66.14    1.52 
  -2  -1  -1   60.88    1.31 
  -2  -1  -2   71.61    1.64 
  -2  -1  -2   70.98    1.80 
  -2  -1  -2   81.10    1.85 
  -2  -1  -2   83.90    1.88 
  -2  -1  -2   84.88    1.75 
  -2  -1  -2   68.26    1.36 
  -2  -1  -2   76.71    1.89 
  -2  -1  -2   66.91    1.35 
  -2  -1  -2   69.89    1.79 
  -2  -1  -3  173.87    3.44 
  -2  -1  -3  170.14    3.34 
  -2  -1  -3  179.63    3.51 
  -2  -1  -3  146.89    3.08 
  -2  -1  -3  159.30    3.11 
  -2  -1  -3  150.54    2.87 
  -2  -1  -3  189.72    3.47 
  -2  -1  -3  199.94    3.56 
  -2  -1  -3  156.93    2.89 
  -2  -1  -3  152.96    3.05 
  -2  -1  -3  177.71    3.45 
  -2  -1  -4  243.28    5.03 
  -2  -1  -4  249.77    5.07 
  -2  -1  -4  270.30    5.25 
  -2  -1  -4  262.85    4.94 
  -2  -1  -4  269.59    4.94 
  -2  -1  -4  296.80    5.28 
  -2  -1  -4  324.70    5.41 
  -2  -1  -4  280.05    4.76 
  -2  -1  -4  290.94    4.83 
  -2  -1  -4  262.46    4.88 
  -2  -1  -5   56.90    1.46 
  -2  -1  -5   54.28    1.39 
  -2  -1  -5   51.40    1.26 
  -2  -1  -5   51.26    1.25 
  -2  -1  -5   43.44    1.12 
  -2  -1  -5   53.03    1.32 
  -2  -1  -5   53.46    1.31 
  -2  -1  -5   49.09    1.06 
  -2  -1  -5   53.37    1.87 
  -2  -1  -5   41.78    1.69 
  -2  -1  -5   50.07    1.53 
  -2  -1  -5   52.76    1.50 
  -2  -1  -5   51.88    1.87 
  -2  -1  -5   47.77    1.82 
  -2  -1  -5   69.21    1.75 
  -2  -1  -5   43.96    1.62 
  -2  -1  -5   50.06    1.45 
  -2  -1  -6   56.39    1.65 
  -2  -1  -6   51.50    1.47 
  -2  -1  -6   48.32    1.31 
  -2  -1  -6   48.28    1.29 
  -2  -1  -6   52.92    1.38 
  -2  -1  -6   50.99    1.34 
  -2  -1  -6   47.38    1.10 
  -2  -1  -6   50.21    1.92 
  -2  -1  -6   47.62    1.64 
  -2  -1  -6   49.58    1.60 
  -2  -1  -6   43.99    1.93 
  -2  -1  -6   39.03    1.83 
  -2  -1  -6   64.07    1.83 
  -2  -1  -6   58.75    1.94 
  -2  -1  -6   42.71    1.71 
  -2  -1  -6   55.62    1.91 
  -2  -1  -6   51.28    1.59 
  -2  -1  -7   59.37    1.89 
  -2  -1  -7   52.14    1.59 
  -2  -1  -7   52.67    1.46 
  -2  -1  -7   53.46    1.49 
  -2  -1  -7   52.89    1.50 
  -2  -1  -7   51.15    1.47 
  -2  -1  -7   52.10    1.22 
  -2  -1  -7   58.63    2.18 
  -2  -1  -7   42.15    1.87 
  -2  -1  -7   49.66    1.86 
  -2  -1  -7   64.69    2.00 
  -2  -1  -7   39.04    1.98 
  -2  -1  -7   37.84    1.96 
  -2  -1  -7   52.56    1.80 
  -2  -1  -7   59.30    2.19 
  -2  -1  -8    4.37    0.76 
  -2  -1  -8    4.55    0.82 
  -2  -1  -8    4.82    1.02 
  -2  -1  -8    4.73    1.06 
  -2  -1  -8    3.34    0.85 
  -2  -1  -8    5.64    0.99 
  -2  -1  -8    5.65    0.72 
  -2  -1  -8    6.33    0.73 
  -2  -1  -8    4.82    0.87 
  -2  -1  -8    6.56    0.85 
  -2  -1  -8    5.17    0.80 
  -2  -1  -9   48.69    1.73 
  -2  -1  -9   49.45    1.68 
  -2  -1  -9   48.95    1.64 
  -2  -1  -9   45.52    1.57 
  -2  -1  -9   57.04    2.49 
  -2  -1  -9   55.01    2.35 
  -2  -1  -9   55.59    2.11 
  -2  -1  -9   53.49    2.44 
  -2  -1  -9   54.71    2.21 
  -2  -1 -10   -0.16    0.81 
  -2  -1 -10   -0.24    0.77 
  -2  -1 -10    0.42    0.78 
  -2  -1 -10    0.49    2.18 
  -2  -1 -10   -0.75    0.99 
  -2  -1 -10   -0.04    0.91 
  -2  -1 -10    0.48    0.82 
  -2  -1 -10   -0.11    0.76 
  -2  -1 -11    1.04    0.77 
  -2  -1 -11   -0.28    0.79 
  -2  -1 -11   -0.30    0.85 
  -2  -1 -11    0.47    0.77 
  -2  -1 -11    0.16    0.83 
  -2  -2  11   -0.07    0.27 
  -2  -2  11    0.21    0.26 
  -2  -2  10    1.38    0.29 
  -2  -2  10    1.26    0.41 
  -2  -2  10    0.65    0.44 
  -2  -2  10    0.91    0.38 
  -2  -2  10    1.48    0.38 
  -2  -2  10   -0.20    0.64 
  -2  -2  10   -0.76    0.84 
  -2  -2  10    1.82    0.53 
  -2  -2   9    0.41    0.51 
  -2  -2   9    0.22    0.35 
  -2  -2   9    0.63    0.53 
  -2  -2   9    0.34    0.38 
  -2  -2   9    0.67    0.41 
  -2  -2   9    0.57    0.46 
  -2  -2   9    0.66    0.51 
  -2  -2   9    0.72    0.46 
  -2  -2   9    0.12    0.93 
  -2  -2   9    0.01    0.69 
  -2  -2   9    0.01    0.43 
  -2  -2   9    0.81    0.43 
  -2  -2   8    8.95    0.60 
  -2  -2   8   10.29    0.60 
  -2  -2   8    7.76    0.77 
  -2  -2   8    7.27    0.91 
  -2  -2   8    8.47    0.79 
  -2  -2   8   10.12    0.68 
  -2  -2   8    9.87    0.64 
  -2  -2   8    8.14    1.19 
  -2  -2   8    8.16    1.00 
  -2  -2   7    1.06    0.43 
  -2  -2   7    1.16    0.41 
  -2  -2   7    0.57    1.27 
  -2  -2   7    1.31    0.49 
  -2  -2   7    2.38    1.51 
  -2  -2   7    0.68    0.41 
  -2  -2   7    0.86    0.56 
  -2  -2   7    0.76    0.42 
  -2  -2   7    0.90    0.42 
  -2  -2   7    0.76    0.45 
  -2  -2   7    2.03    0.94 
  -2  -2   7    0.54    0.67 
  -2  -2   7    0.73    0.61 
  -2  -2   6    2.63    0.40 
  -2  -2   6    3.18    0.44 
  -2  -2   6    2.23    0.56 
  -2  -2   6    3.49    0.49 
  -2  -2   6    2.00    0.38 
  -2  -2   6    2.78    0.38 
  -2  -2   5    9.49    0.30 
  -2  -2   5    9.51    0.74 
  -2  -2   5   13.49    0.76 
  -2  -2   5   15.66    0.76 
  -2  -2   5   11.87    0.50 
  -2  -2   5   14.08    0.55 
  -2  -2   5    6.74    0.49 
  -2  -2   5   10.58    0.48 
  -2  -2   4    0.62    0.35 
  -2  -2   4    0.98    0.43 
  -2  -2   4    0.69    0.33 
  -2  -2   4    0.53    0.33 
  -2  -2   4    0.67    0.15 
  -2  -2   4    0.50    0.39 
  -2  -2   3   91.35    1.65 
  -2  -2   3   70.83    1.30 
  -2  -2   3   64.29    1.76 
  -2  -2   3   98.31    1.84 
  -2  -2   3   89.65    1.71 
  -2  -2   2  176.04    3.08 
  -2  -2   2  188.91    3.36 
  -2  -2   2  218.59    3.31 
  -2  -2   2  200.19    3.33 
  -2  -2   2  218.09    3.60 
  -2  -2   2  231.14    3.80 
  -2  -2   1   55.83    1.22 
  -2  -2   1   61.59    1.40 
  -2  -2   1   53.50    1.05 
  -2  -2   1   59.33    1.55 
  -2  -2   1   59.33    1.12 
  -2  -2   0   64.74    1.40 
  -2  -2   0   88.99    1.57 
  -2  -2   0   83.79    1.52 
  -2  -2   0   76.19    1.82 
  -2  -2   0   68.08    1.34 
  -2  -2   0   95.41    1.83 
  -2  -2   0   85.53    1.83 
  -2  -2   0   76.23    1.53 
  -2  -2  -1  301.98    4.80 
  -2  -2  -1  303.41    4.82 
  -2  -2  -1  285.10    5.36 
  -2  -2  -1  265.41    4.81 
  -2  -2  -1  276.21    4.94 
  -2  -2  -1  319.17    4.96 
  -2  -2  -1  252.09    4.65 
  -2  -2  -1  340.48    5.29 
  -2  -2  -1  326.48    5.32 
  -2  -2  -1  295.34    4.90 
  -2  -2  -2    0.65    0.71 
  -2  -2  -2    0.46    0.61 
  -2  -2  -2    0.38    0.22 
  -2  -2  -2    0.33    0.42 
  -2  -2  -2    0.01    0.72 
  -2  -2  -2    0.15    0.19 
  -2  -2  -2    0.19    0.68 
  -2  -2  -2   -0.51    0.79 
  -2  -2  -2   -0.23    0.45 
  -2  -2  -2    0.18    0.46 
  -2  -2  -2    0.10    0.35 
  -2  -2  -2    0.27    0.29 
  -2  -2  -2    0.13    0.15 
  -2  -2  -3    3.15    0.29 
  -2  -2  -3    1.47    0.45 
  -2  -2  -3    1.64    0.42 
  -2  -2  -3    4.47    0.89 
  -2  -2  -3    4.20    0.94 
  -2  -2  -3    3.09    0.37 
  -2  -2  -3    3.83    0.44 
  -2  -2  -3    3.69    0.33 
  -2  -2  -3    5.51    0.95 
  -2  -2  -3    3.79    0.88 
  -2  -2  -3    5.27    0.59 
  -2  -2  -3    3.95    0.43 
  -2  -2  -3    1.98    1.23 
  -2  -2  -3    3.75    0.64 
  -2  -2  -3    2.92    0.59 
  -2  -2  -4   15.13    0.72 
  -2  -2  -4   14.26    0.52 
  -2  -2  -4   15.87    0.97 
  -2  -2  -4   12.05    1.71 
  -2  -2  -4   14.11    0.49 
  -2  -2  -4   12.50    1.15 
  -2  -2  -4   16.62    1.27 
  -2  -2  -4   15.95    0.78 
  -2  -2  -4   15.13    0.64 
  -2  -2  -4   15.48    1.23 
  -2  -2  -4   15.57    1.27 
  -2  -2  -4   18.86    0.90 
  -2  -2  -4   16.96    1.00 
  -2  -2  -4   15.29    0.74 
  -2  -2  -4   14.83    0.61 
  -2  -2  -5   23.49    0.96 
  -2  -2  -5   23.10    0.72 
  -2  -2  -5   24.00    0.83 
  -2  -2  -5   23.42    0.84 
  -2  -2  -5   23.90    0.65 
  -2  -2  -5   20.33    1.46 
  -2  -2  -5   22.17    1.05 
  -2  -2  -5   27.17    1.50 
  -2  -2  -5   24.71    1.01 
  -2  -2  -5   24.57    1.49 
  -2  -2  -5   23.08    1.42 
  -2  -2  -5   25.74    0.89 
  -2  -2  -6    8.57    0.60 
  -2  -2  -6    8.41    0.58 
  -2  -2  -6    7.08    0.47 
  -2  -2  -6    8.87    0.63 
  -2  -2  -6    8.39    0.61 
  -2  -2  -6    8.91    0.45 
  -2  -2  -6   11.96    1.37 
  -2  -2  -6    6.99    0.78 
  -2  -2  -6    8.56    0.72 
  -2  -2  -6   11.40    1.37 
  -2  -2  -6   11.48    1.38 
  -2  -2  -6    9.84    5.02 
  -2  -2  -6    9.25    0.73 
  -2  -2  -7    0.19    0.46 
  -2  -2  -7   -0.21    0.51 
  -2  -2  -7    0.60    1.28 
  -2  -2  -7   -0.22    0.61 
  -2  -2  -7    0.32    0.59 
  -2  -2  -7   -0.18    0.51 
  -2  -2  -7   -0.34    0.52 
  -2  -2  -7    0.01    0.55 
  -2  -2  -7   -0.14    0.60 
  -2  -2  -7   -0.04    0.36 
  -2  -2  -7   -0.25    0.66 
  -2  -2  -7   -0.09    0.56 
  -2  -2  -8   30.36    1.51 
  -2  -2  -8    8.01    1.53 
  -2  -2  -8    7.25    1.62 
  -2  -2  -8   33.36    1.58 
  -2  -2  -8   30.37    1.20 
  -2  -2  -8   30.92    1.19 
  -2  -2  -8   25.98    1.16 
  -2  -2  -8   25.32    1.13 
  -2  -2  -8   27.36    0.88 
  -2  -2  -8   27.53    1.45 
  -2  -2  -8   28.32    1.28 
  -2  -2  -8   31.81    1.78 
  -2  -2  -8   32.02    1.78 
  -2  -2  -9    0.13    0.90 
  -2  -2  -9    0.07    0.89 
  -2  -2  -9   -0.29    0.76 
  -2  -2  -9    0.97    0.67 
  -2  -2  -9    0.35    0.69 
  -2  -2  -9    0.03    0.69 
  -2  -2  -9    0.58    0.72 
  -2  -2  -9   -0.20    0.76 
  -2  -2  -9   -0.28    2.09 
  -2  -2 -10    0.44    0.82 
  -2  -2 -10    0.42    0.74 
  -2  -2 -10    0.60    0.72 
  -2  -2 -10    0.80    0.76 
  -2  -2 -10    0.80    0.80 
  -2  -2 -10    0.90    0.93 
  -2  -2 -10    0.25    0.90 
  -2  -2 -11    0.15    0.79 
  -2  -2 -11   -0.33    0.75 
  -2  -2 -11   -0.31    0.78 
  -2  -2 -11    0.62    0.76 
  -2  -2 -11    0.34    0.70 
  -2  -3  10    0.56    0.33 
  -2  -3  10    0.79    0.32 
  -2  -3  10    0.62    0.42 
  -2  -3  10    0.79    0.39 
  -2  -3   9   -0.19    0.32 
  -2  -3   9    0.10    0.48 
  -2  -3   9    0.27    0.44 
  -2  -3   9    0.08    0.48 
  -2  -3   9    0.33    0.38 
  -2  -3   9    0.11    0.37 
  -2  -3   9   -0.13    0.61 
  -2  -3   9   -0.24    0.80 
  -2  -3   8   10.33    0.66 
  -2  -3   8    5.68    0.59 
  -2  -3   8    6.32    0.84 
  -2  -3   8    8.90    0.65 
  -2  -3   8    9.40    0.62 
  -2  -3   8    6.55    0.52 
  -2  -3   8    8.18    0.52 
  -2  -3   8    2.35    0.98 
  -2  -3   8    0.94    0.77 
  -2  -3   7    4.25    0.62 
  -2  -3   7    3.17    1.57 
  -2  -3   7    1.71    0.41 
  -2  -3   7    1.79    0.43 
  -2  -3   7    2.53    0.68 
  -2  -3   7    1.74    0.50 
  -2  -3   7    3.42    0.95 
  -2  -3   7   -0.04    0.70 
  -2  -3   7    2.74    0.46 
  -2  -3   7    3.14    0.46 
  -2  -3   6    9.68    0.66 
  -2  -3   6    5.01    0.47 
  -2  -3   6    8.40    0.48 
  -2  -3   6    2.71    0.48 
  -2  -3   6    5.99    0.33 
  -2  -3   6    5.31    0.28 
  -2  -3   6    8.60    0.76 
  -2  -3   6   11.64    0.78 
  -2  -3   6    5.00    0.76 
  -2  -3   6    5.92    0.78 
  -2  -3   6    5.15    1.46 
  -2  -3   5    1.87    0.39 
  -2  -3   5    6.21    0.44 
  -2  -3   5    6.39    0.46 
  -2  -3   5    5.06    0.29 
  -2  -3   5    4.67    0.24 
  -2  -3   5    3.89    0.65 
  -2  -3   5    6.56    0.62 
  -2  -3   5    7.83    0.69 
  -2  -3   5    3.47    0.43 
  -2  -3   5    5.20    0.44 
  -2  -3   4    5.84    0.45 
  -2  -3   4    6.81    0.44 
  -2  -3   4    6.31    0.32 
  -2  -3   4    7.99    0.45 
  -2  -3   4    6.15    0.30 
  -2  -3   4    2.18    0.37 
  -2  -3   4    7.31    0.41 
  -2  -3   4    6.31    0.25 
  -2  -3   4    5.88    0.64 
  -2  -3   4   10.84    0.71 
  -2  -3   4    7.75    0.58 
  -2  -3   4    6.42    0.48 
  -2  -3   4    8.79    0.61 
  -2  -3   3  113.02    2.38 
  -2  -3   3  130.37    2.20 
  -2  -3   3  162.88    2.36 
  -2  -3   3  183.98    2.91 
  -2  -3   3  173.27    2.67 
  -2  -3   3  122.92    1.95 
  -2  -3   3  124.11    1.93 
  -2  -3   3   19.23    1.67 
  -2  -3   3  126.08    1.81 
  -2  -3   3  115.31    1.81 
  -2  -3   3  109.74    1.93 
  -2  -3   3  110.21    1.91 
  -2  -3   3  113.26    1.73 
  -2  -3   3  190.56    2.66 
  -2  -3   3   94.06    2.38 
  -2  -3   3  173.60    2.37 
  -2  -3   2   38.87    0.94 
  -2  -3   2   35.07    0.78 
  -2  -3   2   38.92    0.91 
  -2  -3   2   35.34    0.73 
  -2  -3   2   40.49    1.00 
  -2  -3   2   45.57    1.35 
  -2  -3   2   47.44    1.49 
  -2  -3   2   53.37    1.29 
  -2  -3   2   47.26    1.12 
  -2  -3   2   46.76    1.20 
  -2  -3   2   37.49    1.17 
  -2  -3   2   37.28    1.03 
  -2  -3   2   53.21    1.35 
  -2  -3   1  240.91    4.81 
  -2  -3   1  335.04    4.78 
  -2  -3   1  265.05    4.51 
  -2  -3   1  315.02    4.71 
  -2  -3   1  243.49    4.28 
  -2  -3   1  261.18    4.94 
  -2  -3   1  237.67    4.41 
  -2  -3   1  247.05    4.50 
  -2  -3   1  263.82    4.73 
  -2  -3   0    2.63    0.58 
  -2  -3   0    1.66    0.54 
  -2  -3   0    2.06    0.52 
  -2  -3   0    2.46    0.17 
  -2  -3   0    1.67    0.25 
  -2  -3   0    1.36    0.34 
  -2  -3   0    1.89    0.74 
  -2  -3   0    1.97    0.35 
  -2  -3   0    1.81    0.37 
  -2  -3  -1    2.96    0.84 
  -2  -3  -1    2.80    0.65 
  -2  -3  -1    2.51    0.56 
  -2  -3  -1    3.04    0.18 
  -2  -3  -1    2.45    0.45 
  -2  -3  -1    2.70    0.28 
  -2  -3  -1    1.67    0.94 
  -2  -3  -1    3.86    0.89 
  -2  -3  -1    2.87    0.34 
  -2  -3  -1    2.75    0.38 
  -2  -3  -1    3.64    0.78 
  -2  -3  -1    3.09    0.38 
  -2  -3  -2   15.64    0.87 
  -2  -3  -2   16.03    0.94 
  -2  -3  -2   15.67    0.62 
  -2  -3  -2   14.35    0.54 
  -2  -3  -2   16.75    0.71 
  -2  -3  -2   11.63    0.75 
  -2  -3  -2   12.00    0.75 
  -2  -3  -2   15.75    1.34 
  -2  -3  -2   15.15    1.15 
  -2  -3  -3   83.29    1.94 
  -2  -3  -3   97.65    1.84 
  -2  -3  -3   97.89    1.84 
  -2  -3  -3  102.12    1.83 
  -2  -3  -3  104.03    2.76 
  -2  -3  -3  102.67    3.06 
  -2  -3  -3   96.73    2.26 
  -2  -3  -3  102.54    1.67 
  -2  -3  -3   88.29    1.63 
  -2  -3  -3  104.76    2.80 
  -2  -3  -3  103.35    2.06 
  -2  -3  -3  110.71    2.21 
  -2  -3  -3  103.13    1.95 
  -2  -3  -3  111.73    2.18 
  -2  -3  -3   94.23    1.90 
  -2  -3  -3   78.36    2.14 
  -2  -3  -3   77.25    2.10 
  -2  -3  -3   94.83    2.25 
  -2  -3  -4   53.15    1.33 
  -2  -3  -4   56.13    1.21 
  -2  -3  -4   57.00    1.17 
  -2  -3  -4   56.52    1.23 
  -2  -3  -4   59.65    1.71 
  -2  -3  -4   50.24    1.99 
  -2  -3  -4   28.98    2.28 
  -2  -3  -4   54.62    1.11 
  -2  -3  -4   49.30    0.96 
  -2  -3  -4   56.71    1.00 
  -2  -3  -4   52.66    2.03 
  -2  -3  -4   58.11    1.42 
  -2  -3  -4   59.14    1.54 
  -2  -3  -4   64.85    1.57 
  -2  -3  -4   56.75    2.04 
  -2  -3  -4   55.71    1.96 
  -2  -3  -4   59.64    1.35 
  -2  -3  -4    6.53    1.56 
  -2  -3  -4   56.11    1.30 
  -2  -3  -4    6.39    1.41 
  -2  -3  -4   43.32    1.37 
  -2  -3  -4   59.43    1.71 
  -2  -3  -5    2.27    0.47 
  -2  -3  -5    2.00    0.33 
  -2  -3  -5    1.56    0.60 
  -2  -3  -5    2.09    0.61 
  -2  -3  -5    1.43    0.22 
  -2  -3  -5    1.67    0.31 
  -2  -3  -5    1.68    0.24 
  -2  -3  -5    1.92    0.47 
  -2  -3  -5    1.89    0.51 
  -2  -3  -5    3.10    1.03 
  -2  -3  -5    2.00    0.45 
  -2  -3  -5    1.63    0.35 
  -2  -3  -6   20.24    1.25 
  -2  -3  -6   19.72    1.02 
  -2  -3  -6   18.72    0.72 
  -2  -3  -6   16.71    0.82 
  -2  -3  -6   16.63    0.79 
  -2  -3  -6   19.17    0.65 
  -2  -3  -6   18.24    1.66 
  -2  -3  -6   20.77    1.06 
  -2  -3  -6   18.85    1.62 
  -2  -3  -6   14.99    1.50 
  -2  -3  -6   20.85    1.25 
  -2  -3  -6   19.10    0.92 
  -2  -3  -7    0.61    0.55 
  -2  -3  -7    0.22    0.56 
  -2  -3  -7    0.56    0.41 
  -2  -3  -7    0.76    0.57 
  -2  -3  -7    0.55    0.62 
  -2  -3  -7    1.09    0.41 
  -2  -3  -7    2.34    1.42 
  -2  -3  -7    0.72    0.59 
  -2  -3  -7    0.91    0.53 
  -2  -3  -7    1.15    0.61 
  -2  -3  -8   10.78    0.97 
  -2  -3  -8   12.24    0.90 
  -2  -3  -8   13.25    0.89 
  -2  -3  -8    9.43    0.83 
  -2  -3  -8    9.61    0.86 
  -2  -3  -8   12.74    0.66 
  -2  -3  -8   16.07    1.21 
  -2  -3  -8   12.22    1.06 
  -2  -3  -8   12.79    1.03 
  -2  -3  -8   12.27    1.06 
  -2  -3  -9   15.08    1.00 
  -2  -3  -9   14.56    0.96 
  -2  -3  -9    6.07    0.93 
  -2  -3  -9    4.89    0.89 
  -2  -3  -9   12.60    1.06 
  -2  -3 -10    7.41    0.96 
  -2  -3 -10    8.81    0.92 
  -2  -3 -10    7.70    0.87 
  -2  -3 -10    9.57    1.19 
  -2  -3 -10    2.43    0.80 
  -2  -3 -10    3.09    0.86 
  -2  -3 -10   10.33    1.24 
  -2  -3 -11   -1.03    0.81 
  -2  -3 -11   -0.40    0.72 
  -2  -3 -11   -0.12    0.76 
  -2  -4  10    1.02    0.34 
  -2  -4  10    0.97    0.37 
  -2  -4   9    1.34    0.33 
  -2  -4   9    2.70    0.34 
  -2  -4   9    2.83    0.60 
  -2  -4   8    0.42    0.79 
  -2  -4   8    0.07    0.57 
  -2  -4   8    0.71    0.52 
  -2  -4   8    0.53    0.36 
  -2  -4   8    0.09    0.35 
  -2  -4   8    0.30    0.54 
  -2  -4   7    4.79    0.33 
  -2  -4   7    6.36    0.59 
  -2  -4   7    6.31    0.56 
  -2  -4   7    4.46    0.28 
  -2  -4   7   10.12    0.73 
  -2  -4   7    5.53    1.50 
  -2  -4   7    7.60    0.73 
  -2  -4   7    3.89    0.45 
  -2  -4   7    7.17    0.49 
  -2  -4   7    0.50    0.73 
  -2  -4   6    1.39    0.41 
  -2  -4   6    2.57    0.42 
  -2  -4   6    0.78    0.65 
  -2  -4   6    0.86    1.47 
  -2  -4   6    3.09    0.54 
  -2  -4   6    4.48    0.65 
  -2  -4   6    2.18    0.27 
  -2  -4   6    2.62    0.48 
  -2  -4   6    2.52    0.45 
  -2  -4   6    2.20    0.24 
  -2  -4   6    2.85    0.56 
  -2  -4   6    1.69    0.63 
  -2  -4   5    3.67    0.67 
  -2  -4   5    3.26    0.44 
  -2  -4   5    5.79    0.45 
  -2  -4   5    4.63    0.32 
  -2  -4   5    4.96    0.32 
  -2  -4   5    5.17    0.49 
  -2  -4   5    4.92    0.45 
  -2  -4   5    4.98    0.27 
  -2  -4   5    7.68    0.73 
  -2  -4   5    6.50    0.62 
  -2  -4   5    4.11    0.66 
  -2  -4   5    6.95    0.63 
  -2  -4   5    1.03    0.63 
  -2  -4   4   40.91    0.86 
  -2  -4   4   34.64    0.96 
  -2  -4   4   34.97    0.83 
  -2  -4   4   36.05    0.94 
  -2  -4   4   34.73    0.75 
  -2  -4   4   55.52    1.41 
  -2  -4   4   57.14    1.59 
  -2  -4   4   49.55    1.37 
  -2  -4   4   35.36    1.35 
  -2  -4   4   38.30    1.18 
  -2  -4   4   25.92    0.89 
  -2  -4   4   37.64    0.93 
  -2  -4   3   18.56    0.71 
  -2  -4   3   20.23    0.71 
  -2  -4   3   22.37    0.59 
  -2  -4   3   22.56    0.74 
  -2  -4   3   19.07    0.57 
  -2  -4   3   22.96    0.56 
  -2  -4   3   21.39    0.53 
  -2  -4   3   22.48    0.77 
  -2  -4   3   20.33    0.51 
  -2  -4   3   26.22    0.95 
  -2  -4   3   29.54    1.21 
  -2  -4   3   33.26    1.23 
  -2  -4   3   21.21    0.87 
  -2  -4   3   21.36    1.02 
  -2  -4   3   29.34    1.03 
  -2  -4   2  740.12   12.42 
  -2  -4   2  797.35   12.39 
  -2  -4   2  661.19   12.54 
  -2  -4   2  624.91   12.56 
  -2  -4   2  729.28   12.36 
  -2  -4   2 1160.19   13.51 
  -2  -4   2  914.48   12.82 
  -2  -4   2  913.93   13.39 
  -2  -4   2  987.88   13.03 
  -2  -4   2 1161.27   13.39 
  -2  -4   2 1064.43   13.24 
  -2  -4   2  776.22   13.10 
  -2  -4   2  755.83   12.84 
  -2  -4   1   12.91    0.82 
  -2  -4   1   14.19    0.88 
  -2  -4   1    7.60    0.69 
  -2  -4   1   10.88    0.92 
  -2  -4   1   13.35    1.00 
  -2  -4   1    9.20    0.34 
  -2  -4   1    8.32    0.32 
  -2  -4   1    8.22    0.60 
  -2  -4   1    8.92    0.56 
  -2  -4   1    8.52    0.34 
  -2  -4   1    9.17    0.30 
  -2  -4   1   10.34    0.75 
  -2  -4   1    9.11    0.57 
  -2  -4   1    6.77    0.54 
  -2  -4   1    7.40    0.52 
  -2  -4   0  108.12    2.40 
  -2  -4   0  102.12    2.98 
  -2  -4   0  113.77    2.27 
  -2  -4   0  115.85    2.37 
  -2  -4   0  105.17    2.13 
  -2  -4   0  119.11    2.04 
  -2  -4   0  118.79    2.07 
  -2  -4   0  119.27    2.00 
  -2  -4   0  148.73    3.00 
  -2  -4   0  103.30    2.54 
  -2  -4   0  176.11    2.98 
  -2  -4   0  180.41    3.00 
  -2  -4  -1   56.48    1.39 
  -2  -4  -1   50.61    1.41 
  -2  -4  -1   58.21    2.09 
  -2  -4  -1   55.69    1.41 
  -2  -4  -1   51.10    1.15 
  -2  -4  -1   56.82    1.06 
  -2  -4  -1   52.38    1.01 
  -2  -4  -1   59.21    1.05 
  -2  -4  -1   47.85    1.07 
  -2  -4  -1   56.23    1.02 
  -2  -4  -1   51.06    1.28 
  -2  -4  -1   60.30    1.98 
  -2  -4  -1   56.84    1.28 
  -2  -4  -1   69.76    2.01 
  -2  -4  -1   63.87    2.01 
  -2  -4  -1   40.50    1.53 
  -2  -4  -1   65.63    1.69 
  -2  -4  -1   67.38    1.74 
  -2  -4  -2   52.36    1.36 
  -2  -4  -2   36.34    1.28 
  -2  -4  -2   37.22    1.00 
  -2  -4  -2   38.46    1.01 
  -2  -4  -2   49.71    0.94 
  -2  -4  -2   44.52    0.98 
  -2  -4  -2   51.84    0.93 
  -2  -4  -2   46.34    0.90 
  -2  -4  -2   49.74    0.99 
  -2  -4  -2   51.19    0.92 
  -2  -4  -2   46.90    1.84 
  -2  -4  -2   49.62    1.19 
  -2  -4  -2   46.57    1.25 
  -2  -4  -2   52.16    1.80 
  -2  -4  -2   47.52    1.36 
  -2  -4  -2   51.26    1.30 
  -2  -4  -2   36.95    1.28 
  -2  -4  -2   43.54    1.87 
  -2  -4  -2   45.74    2.03 
  -2  -4  -2   51.83    1.60 
  -2  -4  -2   51.86    1.62 
  -2  -4  -3    6.85    0.82 
  -2  -4  -3    6.92    0.91 
  -2  -4  -3    6.86    0.53 
  -2  -4  -3    8.98    0.48 
  -2  -4  -3    9.70    0.46 
  -2  -4  -3    8.88    0.48 
  -2  -4  -3    9.54    0.37 
  -2  -4  -3    9.07    0.40 
  -2  -4  -3   11.02    0.38 
  -2  -4  -3    8.78    0.31 
  -2  -4  -3    8.96    0.62 
  -2  -4  -3    8.46    1.00 
  -2  -4  -3    8.71    1.09 
  -2  -4  -3   11.10    0.57 
  -2  -4  -3   10.21    0.61 
  -2  -4  -3    7.46    0.69 
  -2  -4  -3    7.84    0.68 
  -2  -4  -3    3.33    1.39 
  -2  -4  -3    8.09    1.03 
  -2  -4  -4   55.67    1.48 
  -2  -4  -4   64.07    1.40 
  -2  -4  -4   68.48    1.41 
  -2  -4  -4   63.94    1.42 
  -2  -4  -4   49.55    2.69 
  -2  -4  -4   52.82    2.19 
  -2  -4  -4   61.83    1.84 
  -2  -4  -4   71.94    1.23 
  -2  -4  -4   61.83    1.17 
  -2  -4  -4   68.47    1.32 
  -2  -4  -4   64.92    1.71 
  -2  -4  -4   74.64    1.68 
  -2  -4  -4   73.92    1.75 
  -2  -4  -4   52.16    1.68 
  -2  -4  -4   55.16    2.26 
  -2  -4  -4   23.81    1.86 
  -2  -4  -4   65.42    1.56 
  -2  -4  -4   25.89    1.79 
  -2  -4  -4   69.88    1.79 
  -2  -4  -4   61.87    1.87 
  -2  -4  -5   37.70    1.23 
  -2  -4  -5   42.33    1.14 
  -2  -4  -5   44.18    1.10 
  -2  -4  -5   42.66    1.15 
  -2  -4  -5   43.11    1.63 
  -2  -4  -5   24.32    1.84 
  -2  -4  -5   29.03    2.58 
  -2  -4  -5   44.47    0.91 
  -2  -4  -5   39.85    0.87 
  -2  -4  -5   44.74    1.01 
  -2  -4  -5   30.35    1.83 
  -2  -4  -5   42.61    1.44 
  -2  -4  -5   30.28    1.72 
  -2  -4  -5   41.58    1.48 
  -2  -4  -5   29.92    1.94 
  -2  -4  -5   40.13    1.29 
  -2  -4  -5   41.04    1.62 
  -2  -4  -5   44.66    4.96 
  -2  -4  -6    0.07    0.56 
  -2  -4  -6    0.16    0.39 
  -2  -4  -6   -0.23    0.68 
  -2  -4  -6    0.14    0.67 
  -2  -4  -6    1.38    2.30 
  -2  -4  -6   -0.29    0.38 
  -2  -4  -6   -0.24    0.58 
  -2  -4  -6    0.08    0.54 
  -2  -4  -6   -2.12    1.37 
  -2  -4  -6    0.34    0.55 
  -2  -4  -6    0.11    0.39 
  -2  -4  -7   23.32    1.27 
  -2  -4  -7   21.09    1.42 
  -2  -4  -7   20.61    0.86 
  -2  -4  -7   16.57    0.90 
  -2  -4  -7   18.03    0.90 
  -2  -4  -7   24.53    0.81 
  -2  -4  -7   24.55    1.31 
  -2  -4  -7    5.83    1.44 
  -2  -4  -7    5.55    1.48 
  -2  -4  -7   21.88    1.29 
  -2  -4  -7    6.04    1.61 
  -2  -4  -7   -0.64    1.64 
  -2  -4  -7   19.22    1.13 
  -2  -4  -7   22.07    1.42 
  -2  -4  -8    4.79    0.54 
  -2  -4  -8    5.16    0.75 
  -2  -4  -8    5.55    0.78 
  -2  -4  -8    5.66    0.84 
  -2  -4  -8    5.04    0.84 
  -2  -4  -8    3.79    0.65 
  -2  -4  -8    4.03    0.71 
  -2  -4  -8    4.22    0.96 
  -2  -4  -8    4.50    0.98 
  -2  -4  -9    0.28    0.66 
  -2  -4  -9   -0.12    0.61 
  -2  -4  -9    0.50    0.49 
  -2  -4  -9    1.51    0.70 
  -2  -4  -9    1.10    0.70 
  -2  -4  -9    0.60    0.76 
  -2  -4 -10    1.48    0.71 
  -2  -4 -10    2.22    0.76 
  -2  -4 -10    1.88    0.78 
  -2  -4 -11   -0.18    0.70 
  -2  -5  10    0.08    0.28 
  -2  -5   9    0.24    0.38 
  -2  -5   9    0.16    0.35 
  -2  -5   9    0.59    0.39 
  -2  -5   8    0.67    0.41 
  -2  -5   8    0.74    0.46 
  -2  -5   8    1.29    0.47 
  -2  -5   7    1.27    0.50 
  -2  -5   7    0.04    0.22 
  -2  -5   7    0.78    0.45 
  -2  -5   7    0.47    0.19 
  -2  -5   7    0.89    0.37 
  -2  -5   7    0.60    0.54 
  -2  -5   7    0.14    1.27 
  -2  -5   7    1.18    0.50 
  -2  -5   6    0.40    0.24 
  -2  -5   6    0.30    0.44 
  -2  -5   6    0.21    0.23 
  -2  -5   6    0.32    0.49 
  -2  -5   6    0.26    0.20 
  -2  -5   6    0.74    0.53 
  -2  -5   6    0.32    0.35 
  -2  -5   6    0.20    0.53 
  -2  -5   6   -0.27    0.53 
  -2  -5   6   -0.05    0.67 
  -2  -5   6    0.63    1.44 
  -2  -5   5    0.01    0.28 
  -2  -5   5   -0.27    0.47 
  -2  -5   5   -0.08    0.25 
  -2  -5   5   -0.32    0.51 
  -2  -5   5    0.48    0.20 
  -2  -5   5    0.58    0.35 
  -2  -5   5    0.75    0.55 
  -2  -5   5    0.34    0.33 
  -2  -5   5   -0.39    0.68 
  -2  -5   5    0.50    0.69 
  -2  -5   5    0.28    0.88 
  -2  -5   5    0.30    0.41 
  -2  -5   4    0.00    0.26 
  -2  -5   4    0.01    0.45 
  -2  -5   4    0.06    0.20 
  -2  -5   4   -0.10    0.42 
  -2  -5   4   -0.03    0.18 
  -2  -5   4    0.00    0.21 
  -2  -5   4   -0.06    0.18 
  -2  -5   4    0.01    0.45 
  -2  -5   4   -0.17    0.35 
  -2  -5   4    0.06    0.41 
  -2  -5   4   -0.06    0.34 
  -2  -5   4   -0.14    0.48 
  -2  -5   3   14.86    0.50 
  -2  -5   3   13.27    0.66 
  -2  -5   3   14.66    0.46 
  -2  -5   3   14.05    0.44 
  -2  -5   3   14.65    0.77 
  -2  -5   3   13.18    0.74 
  -2  -5   3   13.64    0.93 
  -2  -5   2   13.45    0.53 
  -2  -5   2   21.48    1.12 
  -2  -5   2   13.02    0.47 
  -2  -5   2   15.70    0.47 
  -2  -5   2   14.08    0.44 
  -2  -5   2    9.83    0.67 
  -2  -5   2   12.46    0.65 
  -2  -5   2   14.01    0.42 
  -2  -5   2   14.07    0.76 
  -2  -5   2   14.97    0.98 
  -2  -5   2   17.49    0.90 
  -2  -5   2   21.42    1.07 
  -2  -5   2   19.23    0.97 
  -2  -5   1    2.14    0.38 
  -2  -5   1    2.21    0.31 
  -2  -5   1    2.95    0.80 
  -2  -5   1    2.39    0.25 
  -2  -5   1    2.23    0.23 
  -2  -5   1    2.41    0.25 
  -2  -5   1    2.73    0.22 
  -2  -5   1    2.97    0.38 
  -2  -5   1    3.01    0.73 
  -2  -5   1    2.18    0.38 
  -2  -5   1    1.85    0.53 
  -2  -5   1    3.43    0.67 
  -2  -5   1    3.29    0.61 
  -2  -5   0   10.08    0.63 
  -2  -5   0    7.42    0.58 
  -2  -5   0    9.16    1.02 
  -2  -5   0    9.02    0.96 
  -2  -5   0   10.74    0.56 
  -2  -5   0    9.30    0.60 
  -2  -5   0    8.88    0.45 
  -2  -5   0   10.17    0.38 
  -2  -5   0    7.55    0.38 
  -2  -5   0    9.65    0.39 
  -2  -5   0   10.61    0.34 
  -2  -5   0   11.18    0.96 
  -2  -5   0   10.95    0.93 
  -2  -5   0    7.31    0.73 
  -2  -5   0   11.11    0.89 
  -2  -5  -1    0.15    0.34 
  -2  -5  -1    0.30    0.25 
  -2  -5  -1    0.02    0.21 
  -2  -5  -1    0.18    0.17 
  -2  -5  -1    0.25    0.24 
  -2  -5  -1    0.12    0.19 
  -2  -5  -1    0.10    0.17 
  -2  -5  -1    0.09    0.28 
  -2  -5  -1    0.34    0.69 
  -2  -5  -1    0.42    0.73 
  -2  -5  -1   -0.47    0.76 
  -2  -5  -1    0.05    0.31 
  -2  -5  -1    0.33    0.34 
  -2  -5  -1   -0.03    0.55 
  -2  -5  -1   -0.03    0.53 
  -2  -5  -1    0.25    0.57 
  -2  -5  -2    8.03    0.61 
  -2  -5  -2    6.99    0.61 
  -2  -5  -2    7.06    1.06 
  -2  -5  -2    9.69    0.59 
  -2  -5  -2    7.30    0.96 
  -2  -5  -2    7.46    1.00 
  -2  -5  -2    7.08    0.55 
  -2  -5  -2    7.55    0.60 
  -2  -5  -2    5.56    0.40 
  -2  -5  -2    5.54    0.41 
  -2  -5  -2    9.29    0.38 
  -2  -5  -2    9.38    0.36 
  -2  -5  -2    8.56    0.33 
  -2  -5  -2    6.70    0.40 
  -2  -5  -2    8.71    0.40 
  -2  -5  -2    9.06    0.34 
  -2  -5  -2    2.17    1.36 
  -2  -5  -2    6.74    0.80 
  -2  -5  -2    6.94    0.85 
  -2  -5  -3    0.40    0.39 
  -2  -5  -3    0.42    0.33 
  -2  -5  -3    0.42    0.31 
  -2  -5  -3    0.53    0.33 
  -2  -5  -3    0.64    0.25 
  -2  -5  -3    0.54    0.25 
  -2  -5  -3    0.27    0.20 
  -2  -5  -3    0.50    0.25 
  -2  -5  -3    0.76    0.36 
  -2  -5  -3    0.57    0.79 
  -2  -5  -3    0.42    0.74 
  -2  -5  -3    0.35    0.38 
  -2  -5  -3    0.49    0.39 
  -2  -5  -3    0.59    0.82 
  -2  -5  -3   -0.53    0.99 
  -2  -5  -3   -0.09    0.61 
  -2  -5  -3   -0.31    0.55 
  -2  -5  -3    0.33    0.42 
  -2  -5  -3    0.48    0.42 
  -2  -5  -4   18.18    0.86 
  -2  -5  -4   22.22    0.80 
  -2  -5  -4   23.15    0.83 
  -2  -5  -4   26.52    0.83 
  -2  -5  -4   20.67    1.11 
  -2  -5  -4   11.16    1.31 
  -2  -5  -4    1.59    1.92 
  -2  -5  -4   23.93    0.59 
  -2  -5  -4   29.36    0.67 
  -2  -5  -4   19.48    1.52 
  -2  -5  -4   21.46    1.02 
  -2  -5  -4   18.65    1.43 
  -2  -5  -4   29.54    1.16 
  -2  -5  -4   26.99    1.19 
  -2  -5  -4   24.81    0.99 
  -2  -5  -4   13.66    1.09 
  -2  -5  -4   13.08    1.04 
  -2  -5  -4   18.95    1.08 
  -2  -5  -4   26.33    1.15 
  -2  -5  -5    6.44    0.70 
  -2  -5  -5    8.14    0.61 
  -2  -5  -5    8.44    0.63 
  -2  -5  -5    8.42    0.58 
  -2  -5  -5    6.52    0.83 
  -2  -5  -5    8.93    0.44 
  -2  -5  -5    8.04    0.39 
  -2  -5  -5    0.74    0.54 
  -2  -5  -5    7.71    0.76 
  -2  -5  -5    7.72    0.84 
  -2  -5  -5    2.14    1.02 
  -2  -5  -5    7.57    0.67 
  -2  -5  -5    6.77    0.85 
  -2  -5  -5    9.27    0.84 
  -2  -5  -6   23.77    1.11 
  -2  -5  -6   28.46    1.07 
  -2  -5  -6   29.13    1.06 
  -2  -5  -6   29.50    1.00 
  -2  -5  -6   22.15    1.42 
  -2  -5  -6   32.79    0.92 
  -2  -5  -6   25.31    1.32 
  -2  -5  -6   29.36    1.46 
  -2  -5  -6    4.14    1.33 
  -2  -5  -6    6.77    1.71 
  -2  -5  -6   23.88    1.20 
  -2  -5  -6   30.90    1.44 
  -2  -5  -6   23.03    1.43 
  -2  -5  -7    0.46    0.51 
  -2  -5  -7    0.02    0.61 
  -2  -5  -7    0.36    0.69 
  -2  -5  -7    0.67    0.86 
  -2  -5  -7    0.20    0.63 
  -2  -5  -7   -0.16    0.49 
  -2  -5  -7    0.46    0.49 
  -2  -5  -7    0.36    0.47 
  -2  -5  -7    0.19    0.50 
  -2  -5  -7   -0.18    0.69 
  -2  -5  -7    0.40    0.76 
  -2  -5  -7    0.54    0.75 
  -2  -5  -8    8.30    1.07 
  -2  -5  -8    9.13    1.00 
  -2  -5  -8    9.06    0.63 
  -2  -5  -8    7.72    1.06 
  -2  -5  -8    9.36    0.97 
  -2  -5  -9    2.93    0.54 
  -2  -5  -9    4.62    0.73 
  -2  -5  -9    4.52    0.75 
  -2  -5  -9    2.76    0.88 
  -2  -5  -9    3.08    0.90 
  -2  -5 -10   -0.43    0.62 
  -2  -5 -10   -0.12    0.64 
  -2  -6   9    0.51    0.27 
  -2  -6   8    0.33    0.35 
  -2  -6   8   -0.19    0.40 
  -2  -6   8   -0.06    0.35 
  -2  -6   8   -0.28    0.39 
  -2  -6   7    0.26    0.17 
  -2  -6   7    0.95    0.42 
  -2  -6   7    0.26    0.47 
  -2  -6   7    0.81    1.07 
  -2  -6   7    0.48    0.42 
  -2  -6   7    0.03    0.38 
  -2  -6   6   -0.11    0.42 
  -2  -6   6    0.07    0.23 
  -2  -6   6   -0.34    0.46 
  -2  -6   6    0.05    0.20 
  -2  -6   6   -0.12    0.23 
  -2  -6   6   -0.32    0.51 
  -2  -6   6    0.66    0.62 
  -2  -6   6   -0.29    1.24 
  -2  -6   6   -0.31    0.48 
  -2  -6   5    0.27    0.21 
  -2  -6   5    0.47    0.35 
  -2  -6   5    0.17    0.51 
  -2  -6   5    0.30    0.45 
  -2  -6   5    0.16    0.25 
  -2  -6   5   -0.07    0.50 
  -2  -6   5    0.23    0.28 
  -2  -6   5    0.46    0.69 
  -2  -6   5    0.31    0.84 
  -2  -6   4   -0.28    0.41 
  -2  -6   4    0.03    0.45 
  -2  -6   4    0.07    0.39 
  -2  -6   4   -0.02    0.52 
  -2  -6   4   -0.09    0.23 
  -2  -6   4    0.16    0.44 
  -2  -6   4   -0.15    0.21 
  -2  -6   4   -0.24    0.50 
  -2  -6   3    0.17    0.44 
  -2  -6   3   -0.05    0.39 
  -2  -6   3    0.13    0.53 
  -2  -6   3   -0.36    0.64 
  -2  -6   3   -0.14    0.28 
  -2  -6   3    0.21    0.22 
  -2  -6   3    0.18    0.23 
  -2  -6   3    0.05    0.24 
  -2  -6   3    0.28    0.46 
  -2  -6   3    0.37    0.64 
  -2  -6   2    6.68    0.43 
  -2  -6   2   10.23    0.96 
  -2  -6   2    8.24    0.38 
  -2  -6   2    7.56    0.35 
  -2  -6   2    5.76    0.38 
  -2  -6   2    8.24    0.36 
  -2  -6   2    7.20    0.56 
  -2  -6   2   10.50    1.01 
  -2  -6   2    6.81    0.65 
  -2  -6   2    8.84    0.75 
  -2  -6   2    9.02    0.84 
  -2  -6   2    9.70    0.79 
  -2  -6   1    3.68    0.49 
  -2  -6   1    5.08    0.84 
  -2  -6   1    3.91    0.84 
  -2  -6   1    4.36    0.47 
  -2  -6   1    4.24    0.48 
  -2  -6   1    3.87    0.37 
  -2  -6   1    4.58    0.35 
  -2  -6   1    4.56    0.32 
  -2  -6   1    4.33    0.29 
  -2  -6   1    3.79    0.33 
  -2  -6   1    5.00    0.30 
  -2  -6   1    6.25    0.92 
  -2  -6   1    4.82    0.66 
  -2  -6   1    6.23    0.77 
  -2  -6   1    5.20    0.69 
  -2  -6   0   -0.07    0.37 
  -2  -6   0   -0.18    0.39 
  -2  -6   0    0.02    0.70 
  -2  -6   0    0.06    0.65 
  -2  -6   0    0.28    0.32 
  -2  -6   0   -0.12    0.35 
  -2  -6   0    0.39    0.30 
  -2  -6   0    0.25    0.25 
  -2  -6   0    0.49    0.26 
  -2  -6   0    0.11    0.20 
  -2  -6   0    0.34    0.74 
  -2  -6   0   -0.23    0.58 
  -2  -6   0   -0.23    0.49 
  -2  -6   0    0.16    0.55 
  -2  -6  -1   -0.28    0.38 
  -2  -6  -1    0.01    0.29 
  -2  -6  -1   -0.04    0.26 
  -2  -6  -1   -0.03    0.24 
  -2  -6  -1    0.13    0.27 
  -2  -6  -1   -0.11    0.22 
  -2  -6  -1   -0.15    0.22 
  -2  -6  -1   -0.38    0.68 
  -2  -6  -1    0.13    0.74 
  -2  -6  -1   -0.35    0.75 
  -2  -6  -1   -0.17    0.40 
  -2  -6  -1   -0.06    0.39 
  -2  -6  -1   -0.04    0.33 
  -2  -6  -1   -0.66    0.57 
  -2  -6  -1   -0.59    0.61 
  -2  -6  -1    0.11    0.58 
  -2  -6  -2    0.06    0.40 
  -2  -6  -2   -0.13    0.30 
  -2  -6  -2    0.11    0.30 
  -2  -6  -2    0.23    0.27 
  -2  -6  -2    0.23    0.27 
  -2  -6  -2    0.14    0.25 
  -2  -6  -2    0.12    0.23 
  -2  -6  -2    0.02    0.29 
  -2  -6  -2    0.01    0.36 
  -2  -6  -2    0.21    0.42 
  -2  -6  -2   -0.03    0.40 
  -2  -6  -2   -0.19    0.73 
  -2  -6  -2   -0.08    0.78 
  -2  -6  -2    0.02    0.77 
  -2  -6  -2    0.65    0.87 
  -2  -6  -2    0.07    0.60 
  -2  -6  -2   -1.06    0.61 
  -2  -6  -2   -0.32    0.55 
  -2  -6  -3    0.39    0.38 
  -2  -6  -3    0.78    0.40 
  -2  -6  -3    0.12    0.37 
  -2  -6  -3    0.58    0.30 
  -2  -6  -3    0.62    0.35 
  -2  -6  -3    0.55    0.31 
  -2  -6  -3    0.25    0.24 
  -2  -6  -3    0.29    0.46 
  -2  -6  -3   -1.10    0.99 
  -2  -6  -3    0.33    0.85 
  -2  -6  -3    0.22    0.41 
  -2  -6  -3   -0.42    0.52 
  -2  -6  -3    0.55    0.68 
  -2  -6  -3   -0.34    0.58 
  -2  -6  -3    0.44    0.43 
  -2  -6  -3    0.09    0.77 
  -2  -6  -3   -0.02    0.81 
  -2  -6  -4   12.53    0.83 
  -2  -6  -4   10.37    1.27 
  -2  -6  -4   11.09    1.34 
  -2  -6  -4   12.98    0.70 
  -2  -6  -4   13.72    0.70 
  -2  -6  -4    0.67    0.74 
  -2  -6  -4   11.41    0.91 
  -2  -6  -4   19.95    0.60 
  -2  -6  -4   16.44    0.53 
  -2  -6  -4   15.68    1.05 
  -2  -6  -4    4.53    1.16 
  -2  -6  -4    4.79    1.39 
  -2  -6  -4   10.55    0.72 
  -2  -6  -4   13.57    0.86 
  -2  -6  -4   11.74    0.93 
  -2  -6  -5    0.59    0.81 
  -2  -6  -5    0.08    0.51 
  -2  -6  -5   -0.19    0.83 
  -2  -6  -5    0.48    0.59 
  -2  -6  -5    0.63    0.89 
  -2  -6  -5    0.33    0.62 
  -2  -6  -5    0.27    0.59 
  -2  -6  -5    0.48    0.35 
  -2  -6  -5    0.16    0.30 
  -2  -6  -5    0.05    0.43 
  -2  -6  -5    0.75    0.53 
  -2  -6  -5    0.81    0.50 
  -2  -6  -5    0.08    0.45 
  -2  -6  -5    0.53    0.46 
  -2  -6  -5    0.74    0.62 
  -2  -6  -5   -0.05    0.40 
  -2  -6  -6    0.03    0.69 
  -2  -6  -6    0.14    0.56 
  -2  -6  -6    5.92    0.67 
  -2  -6  -6    4.45    0.63 
  -2  -6  -6    5.84    0.60 
  -2  -6  -6    1.43    0.91 
  -2  -6  -6    5.74    0.87 
  -2  -6  -6    5.40    0.82 
  -2  -6  -6    2.95    0.77 
  -2  -6  -6    2.90    0.77 
  -2  -6  -7    0.43    0.55 
  -2  -6  -7    0.13    0.50 
  -2  -6  -7   -0.05    0.56 
  -2  -6  -7    0.42    0.66 
  -2  -6  -7    0.81    0.69 
  -2  -6  -7    0.27    0.45 
  -2  -6  -7    0.68    0.60 
  -2  -6  -7    0.05    0.66 
  -2  -6  -8    3.47    0.52 
  -2  -6  -8    3.41    0.76 
  -2  -6  -9   -0.06    0.44 
  -2  -6  -9   -0.04    0.65 
  -2  -7   7    0.06    0.14 
  -2  -7   6    0.50    0.53 
  -2  -7   6   -0.03    0.17 
  -2  -7   6    0.32    0.34 
  -2  -7   5    0.92    0.62 
  -2  -7   5    0.19    0.73 
  -2  -7   5   -0.02    1.17 
  -2  -7   5   -0.12    0.26 
  -2  -7   5    0.05    0.32 
  -2  -7   4    0.21    0.24 
  -2  -7   4    0.25    0.19 
  -2  -7   4    0.21    0.37 
  -2  -7   4    0.44    0.29 
  -2  -7   3    0.04    0.24 
  -2  -7   3    0.04    0.22 
  -2  -7   3    0.62    0.28 
  -2  -7   3    0.50    0.23 
  -2  -7   3    0.61    0.32 
  -2  -7   3    0.37    0.41 
  -2  -7   3    0.68    0.62 
  -2  -7   2    0.11    0.28 
  -2  -7   2    0.12    0.66 
  -2  -7   2    0.26    0.26 
  -2  -7   2    0.02    0.26 
  -2  -7   2    0.09    0.23 
  -2  -7   2    0.35    0.23 
  -2  -7   2    0.27    0.33 
  -2  -7   2    0.24    0.62 
  -2  -7   2    0.20    0.43 
  -2  -7   2    0.13    0.52 
  -2  -7   2   -0.06    0.45 
  -2  -7   1    2.76    0.46 
  -2  -7   1    4.03    0.75 
  -2  -7   1    3.68    0.78 
  -2  -7   1    3.35    0.76 
  -2  -7   1    4.03    0.49 
  -2  -7   1    2.60    0.43 
  -2  -7   1    2.88    0.37 
  -2  -7   1    1.05    0.37 
  -2  -7   1    3.02    0.30 
  -2  -7   1    3.33    0.33 
  -2  -7   1    3.48    0.30 
  -2  -7   1    3.13    0.77 
  -2  -7   1    2.99    0.57 
  -2  -7   1    2.85    0.64 
  -2  -7   1    2.83    0.56 
  -2  -7   0    0.20    0.39 
  -2  -7   0    0.03    0.45 
  -2  -7   0    0.63    0.65 
  -2  -7   0    0.09    0.68 
  -2  -7   0    0.45    0.39 
  -2  -7   0    0.28    0.36 
  -2  -7   0    0.24    0.32 
  -2  -7   0    0.10    0.31 
  -2  -7   0    0.52    0.27 
  -2  -7   0    0.47    0.25 
  -2  -7   0   -0.42    0.77 
  -2  -7   0    0.10    0.54 
  -2  -7   0    0.02    0.48 
  -2  -7   0   -0.14    0.49 
  -2  -7  -1   -0.03    0.39 
  -2  -7  -1    0.11    0.34 
  -2  -7  -1    0.15    0.30 
  -2  -7  -1   -0.22    0.29 
  -2  -7  -1   -0.16    0.29 
  -2  -7  -1    0.13    0.25 
  -2  -7  -1    0.00    0.28 
  -2  -7  -1   -0.22    0.25 
  -2  -7  -1   -0.36    0.40 
  -2  -7  -1    0.02    0.40 
  -2  -7  -1   -0.02    0.44 
  -2  -7  -1   -0.36    0.66 
  -2  -7  -1   -0.81    0.78 
  -2  -7  -1   -0.47    0.55 
  -2  -7  -1   -0.57    0.58 
  -2  -7  -2    0.59    0.33 
  -2  -7  -2    0.32    0.32 
  -2  -7  -2    0.59    0.40 
  -2  -7  -2    0.46    0.32 
  -2  -7  -2    0.66    0.33 
  -2  -7  -2    0.53    0.30 
  -2  -7  -2    0.66    0.26 
  -2  -7  -2    0.08    0.34 
  -2  -7  -2    0.14    0.81 
  -2  -7  -2    0.32    0.82 
  -2  -7  -2   -0.77    0.72 
  -2  -7  -2    0.58    0.52 
  -2  -7  -2    0.89    0.49 
  -2  -7  -2    0.54    0.45 
  -2  -7  -2    0.27    0.44 
  -2  -7  -2    0.23    0.54 
  -2  -7  -2   -0.28    0.60 
  -2  -7  -2    0.09    0.56 
  -2  -7  -3    1.87    0.56 
  -2  -7  -3    2.31    0.42 
  -2  -7  -3    2.21    0.41 
  -2  -7  -3    2.37    0.37 
  -2  -7  -3    1.54    0.90 
  -2  -7  -3    0.22    0.39 
  -2  -7  -3    2.11    0.40 
  -2  -7  -3    2.12    0.30 
  -2  -7  -3    1.90    0.88 
  -2  -7  -3    0.20    0.79 
  -2  -7  -3    1.67    0.94 
  -2  -7  -3    2.68    0.57 
  -2  -7  -3    1.80    0.58 
  -2  -7  -3    1.74    0.61 
  -2  -7  -3    1.26    0.66 
  -2  -7  -4    0.01    0.33 
  -2  -7  -4    0.05    0.30 
  -2  -7  -4   -0.44    0.82 
  -2  -7  -4    1.07    0.87 
  -2  -7  -4    0.26    0.41 
  -2  -7  -4    0.61    0.41 
  -2  -7  -4    0.63    0.43 
  -2  -7  -4    0.01    0.44 
  -2  -7  -4    0.16    0.51 
  -2  -7  -5    2.33    0.50 
  -2  -7  -5    2.49    0.53 
  -2  -7  -5    0.16    0.52 
  -2  -7  -5    3.35    0.40 
  -2  -7  -5    1.97    0.35 
  -2  -7  -5    0.52    0.73 
  -2  -7  -5    2.49    0.66 
  -2  -7  -5    3.63    0.73 
  -2  -7  -5    2.36    0.84 
  -2  -7  -5    3.04    0.57 
  -2  -7  -6    0.43    0.73 
  -2  -7  -6    0.69    0.44 
  -2  -7  -6    0.95    0.63 
  -2  -7  -6   -0.03    0.53 
  -2  -7  -6    0.80    0.62 
  -2  -7  -6    0.86    0.48 
  -2  -7  -6    0.47    0.51 
  -2  -7  -6    0.69    0.48 
  -2  -7  -7    0.67    0.52 
  -2  -7  -7    1.18    0.54 
  -2  -7  -7    1.14    0.48 
  -2  -7  -7    1.44    0.64 
  -2  -7  -7    2.39    0.45 
  -2  -7  -7   -0.02    0.57 
  -2  -7  -8    0.83    0.48 
  -2  -7  -8    0.60    0.50 
  -2  -7  -8    0.46    0.40 
  -2  -7  -8    0.06    0.56 
  -2  -8   5    0.17    0.46 
  -2  -8   5    0.12    0.20 
  -2  -8   4    0.38    0.31 
  -2  -8   4    0.04    0.24 
  -2  -8   4    0.06    0.52 
  -2  -8   4    0.84    0.64 
  -2  -8   4    0.24    0.17 
  -2  -8   3    0.57    0.35 
  -2  -8   3    0.09    0.24 
  -2  -8   3    0.03    0.18 
  -2  -8   3    0.74    0.21 
  -2  -8   2    1.19    0.27 
  -2  -8   2    0.36    0.33 
  -2  -8   2    1.41    0.56 
  -2  -8   1    0.19    0.33 
  -2  -8   1    0.35    0.26 
  -2  -8   1    2.57    0.28 
  -2  -8   1    2.37    0.34 
  -2  -8   1    3.28    0.66 
  -2  -8   1    1.02    0.34 
  -2  -8   0    0.12    0.33 
  -2  -8   0   -0.06    0.29 
  -2  -8   0    0.01    0.26 
  -2  -8   0   -0.02    0.22 
  -2  -8   0    0.23    0.53 
  -2  -8   0    0.04    0.34 
  -2  -8   0   -0.27    0.43 
  -2  -8   0   -0.05    0.30 
  -2  -8   0   -0.58    0.56 
  -2  -8  -1   -0.01    0.36 
  -2  -8  -1   -0.03    0.26 
  -2  -8  -1   -0.08    0.27 
  -2  -8  -1    0.00    0.29 
  -2  -8  -1   -0.12    0.23 
  -2  -8  -1    0.12    0.32 
  -2  -8  -1   -0.06    0.53 
  -2  -8  -1   -0.06    0.29 
  -2  -8  -1   -0.03    0.38 
  -2  -8  -1   -0.35    0.44 
  -2  -8  -1    0.38    0.63 
  -2  -8  -2    0.37    0.31 
  -2  -8  -2    0.40    0.30 
  -2  -8  -2    0.12    0.24 
  -2  -8  -2   -0.01    0.36 
  -2  -8  -2   -0.02    0.53 
  -2  -8  -2   -0.10    0.42 
  -2  -8  -2    0.03    0.44 
  -2  -8  -2    0.44    0.43 
  -2  -8  -2    0.29    0.31 
  -2  -8  -3    2.00    0.56 
  -2  -8  -3    2.18    0.58 
  -2  -8  -3    2.04    0.70 
  -2  -8  -3    1.93    0.52 
  -2  -8  -3    0.22    0.37 
  -2  -8  -3    2.85    0.39 
  -2  -8  -3    1.97    0.31 
  -2  -8  -4    9.05    0.58 
  -2  -8  -4    7.36    0.74 
  -2  -8  -4    9.33    0.47 
  -2  -8  -4    8.71    0.51 
  -2  -8  -5    2.28    0.45 
  -2  -8  -6    3.80    0.48 
  -2  -8  -7    1.89    0.33 
  -2  -9   4    0.00    0.15 
  -2  -9   4   -0.07    0.17 
  -2  -9   3    0.01    0.17 
  -2  -9   3   -0.09    0.14 
  -2  -9   2    0.08    0.16 
  -2  -9   2    0.49    0.20 
  -2  -9   2    0.04    0.20 
  -2  -9   2    0.02    0.16 
  -2  -9   2    0.33    0.21 
  -2  -9   1   -0.01    0.22 
  -2  -9   1    0.03    0.17 
  -2  -9   1   -0.03    0.20 
  -2  -9   1    0.03    0.22 
  -2  -9   1    0.15    0.30 
  -2  -9   0    0.57    0.25 
  -2  -9   0    0.16    0.25 
  -2  -9   0    0.49    0.33 
  -2  -9  -1    0.17    0.23 
  -2  -9  -1    0.27    0.20 
  -2  -9  -1    0.07    0.28 
  -2  -9  -1    0.24    0.26 
  -2  -9  -1    0.28    0.36 
  -2  -9  -2    0.18    0.24 
  -2  -9  -2    0.01    0.20 
  -2  -9  -2    0.23    0.28 
  -2  -9  -3    1.91    0.28 
  -2  -9  -3    1.94    0.27 
  -2  -9  -3    1.24    0.23 
  -2  -9  -4    1.73    0.29 
  -2  -9  -4    1.26    0.32 
  -2 -10   2    0.58    0.27 
  -2 -10   1    0.37    0.31 
  -1  10   1    0.24    0.23 
  -1  10   0    0.11    0.24 
  -1   9   2    0.08    1.35 
  -1   9   2    0.25    0.28 
  -1   9   2    0.71    0.31 
  -1   9   1   -0.15    0.21 
  -1   9   1   -0.12    0.29 
  -1   9   1   -0.05    0.31 
  -1   9   0    0.07    0.62 
  -1   9   0   -0.15    0.31 
  -1   9   0   -0.15    0.29 
  -1   9   0   -0.11    0.21 
  -1   9   0    0.02    0.21 
  -1   9  -1    0.04    0.67 
  -1   9  -1    0.36    0.54 
  -1   9  -1    0.17    0.28 
  -1   9  -1    0.30    0.22 
  -1   9  -1    0.12    0.22 
  -1   9  -2    1.67    0.70 
  -1   9  -2    0.84    0.61 
  -1   9  -3    0.35    0.55 
  -1   9  -5    0.06    0.42 
  -1   8   7   -0.06    0.30 
  -1   8   6    0.54    0.47 
  -1   8   5    0.04    0.57 
  -1   8   4   -0.23    1.47 
  -1   8   4    0.49    0.61 
  -1   8   3    1.24    0.67 
  -1   8   2   -0.20    0.42 
  -1   8   2    0.15    0.45 
  -1   8   2   -0.07    0.64 
  -1   8   1    0.52    0.80 
  -1   8   1    0.08    0.63 
  -1   8   1    0.17    0.37 
  -1   8   1    0.09    0.44 
  -1   8   1   -0.01    0.46 
  -1   8   1    0.15    0.29 
  -1   8   1    0.23    0.30 
  -1   8   0    0.23    0.30 
  -1   8   0    0.09    0.30 
  -1   8   0    0.18    0.39 
  -1   8   0    0.12    0.85 
  -1   8   0   -0.15    1.71 
  -1   8   0   -0.52    0.52 
  -1   8   0    0.43    0.48 
  -1   8   0    0.21    0.45 
  -1   8  -1    2.82    0.37 
  -1   8  -1    2.59    0.36 
  -1   8  -1    2.87    0.47 
  -1   8  -1    2.11    0.95 
  -1   8  -1    0.12    1.74 
  -1   8  -1    0.32    0.46 
  -1   8  -1    0.77    0.51 
  -1   8  -1    1.58    0.57 
  -1   8  -2    1.01    0.33 
  -1   8  -2    1.10    0.33 
  -1   8  -2    0.16    0.42 
  -1   8  -2    0.32    0.45 
  -1   8  -2    0.64    0.90 
  -1   8  -2    0.23    1.70 
  -1   8  -2   -0.04    0.58 
  -1   8  -2    0.01    0.63 
  -1   8  -2    0.38    0.46 
  -1   8  -3    1.05    0.81 
  -1   8  -3    0.69    0.71 
  -1   8  -3    0.11    0.61 
  -1   8  -3    0.51    0.67 
  -1   8  -3    1.56    0.32 
  -1   8  -3    1.42    0.31 
  -1   8  -4    1.09    0.27 
  -1   8  -4    1.52    0.27 
  -1   8  -4    1.53    0.42 
  -1   8  -4    0.18    0.58 
  -1   8  -4    0.22    0.63 
  -1   8  -4    0.92    0.65 
  -1   8  -4    1.21    0.78 
  -1   8  -4    0.32    0.71 
  -1   8  -5    0.21    0.69 
  -1   8  -5   -0.18    0.32 
  -1   8  -5    0.34    0.48 
  -1   8  -5   -0.02    0.53 
  -1   8  -5   -0.12    0.68 
  -1   8  -6   -0.01    0.60 
  -1   8  -6   -0.36    0.25 
  -1   8  -6    0.01    0.41 
  -1   8  -6    0.01    0.43 
  -1   8  -6   -0.07    0.57 
  -1   8  -7   -0.61    0.52 
  -1   7   8    0.47    0.46 
  -1   7   7   -0.37    0.45 
  -1   7   6   -0.13    0.29 
  -1   7   6   -0.27    0.28 
  -1   7   6   -0.14    0.54 
  -1   7   5    0.81    0.32 
  -1   7   5    0.87    0.34 
  -1   7   5    0.01    0.61 
  -1   7   4    0.22    0.66 
  -1   7   4    0.67    0.34 
  -1   7   4    0.07    0.31 
  -1   7   4    0.31    0.45 
  -1   7   4    0.21    0.47 
  -1   7   3    0.51    0.69 
  -1   7   3    0.58    0.31 
  -1   7   3    0.44    0.32 
  -1   7   3    0.77    0.33 
  -1   7   3    0.75    0.34 
  -1   7   2   -0.28    0.48 
  -1   7   2   -0.02    0.27 
  -1   7   2   -0.05    0.28 
  -1   7   2    0.59    0.72 
  -1   7   2   -0.26    0.77 
  -1   7   2   -0.15    0.41 
  -1   7   2    0.58    0.55 
  -1   7   2   -0.09    0.53 
  -1   7   2   -0.28    0.59 
  -1   7   1    0.18    0.51 
  -1   7   1    0.96    0.44 
  -1   7   1    0.32    0.75 
  -1   7   1    0.24    0.77 
  -1   7   1    0.21    0.54 
  -1   7   1    0.52    0.57 
  -1   7   1    0.95    0.63 
  -1   7   0    1.10    0.59 
  -1   7   0    1.93    0.67 
  -1   7   0    1.55    0.63 
  -1   7   0    1.89    0.41 
  -1   7   0    2.05    0.41 
  -1   7   0    3.26    0.53 
  -1   7   0    1.42    0.82 
  -1   7   0    0.20    0.71 
  -1   7   0    2.45    0.76 
  -1   7  -1    0.27    0.58 
  -1   7  -1    0.26    0.39 
  -1   7  -1    0.15    0.39 
  -1   7  -1   -0.11    0.66 
  -1   7  -1   -0.10    0.72 
  -1   7  -1    0.44    0.59 
  -1   7  -1    0.62    0.56 
  -1   7  -1    0.01    0.59 
  -1   7  -2    0.03    0.55 
  -1   7  -2   -0.11    0.55 
  -1   7  -2    0.66    0.59 
  -1   7  -2    0.11    0.40 
  -1   7  -2    0.27    0.40 
  -1   7  -2    1.08    1.89 
  -1   7  -2   -0.66    0.97 
  -1   7  -2    0.33    0.57 
  -1   7  -2    0.19    0.84 
  -1   7  -2    0.20    0.74 
  -1   7  -2   -0.11    0.75 
  -1   7  -2    0.22    0.94 
  -1   7  -3    0.16    0.54 
  -1   7  -3    0.64    0.53 
  -1   7  -3    0.90    0.41 
  -1   7  -3    1.51    0.42 
  -1   7  -3    2.77    1.92 
  -1   7  -3    0.32    0.97 
  -1   7  -3    1.38    0.96 
  -1   7  -3    0.29    0.56 
  -1   7  -3    0.02    0.83 
  -1   7  -3    0.25    1.00 
  -1   7  -3    0.06    0.79 
  -1   7  -4   -0.53    0.53 
  -1   7  -4    0.25    0.46 
  -1   7  -4    1.69    0.40 
  -1   7  -4    1.64    0.39 
  -1   7  -4    1.02    0.92 
  -1   7  -4    0.50    0.91 
  -1   7  -4    0.30    1.08 
  -1   7  -4    0.14    0.83 
  -1   7  -4    1.46    0.94 
  -1   7  -4    0.29    0.95 
  -1   7  -5    0.22    0.28 
  -1   7  -5    0.16    0.29 
  -1   7  -5   -0.05    0.81 
  -1   7  -5    0.07    0.74 
  -1   7  -5    0.22    0.99 
  -1   7  -5   -0.39    0.77 
  -1   7  -5    0.63    0.87 
  -1   7  -6   -0.33    0.84 
  -1   7  -6   -0.19    0.74 
  -1   7  -6   -0.55    0.76 
  -1   7  -6   -0.35    0.65 
  -1   7  -6   -0.08    0.75 
  -1   7  -6    0.71    0.89 
  -1   7  -6    0.01    0.68 
  -1   7  -7    0.05    0.74 
  -1   7  -7   -0.06    0.60 
  -1   7  -7   -0.44    0.78 
  -1   7  -7   -0.71    0.56 
  -1   7  -8    0.21    0.44 
  -1   7  -8    0.88    0.42 
  -1   7  -8   -0.09    0.60 
  -1   7  -9   -0.08    0.41 
  -1   6   9    0.71    0.37 
  -1   6   8    4.88    0.50 
  -1   6   8    6.72    0.51 
  -1   6   7    1.15    0.42 
  -1   6   7    1.37    0.44 
  -1   6   7    1.22    0.64 
  -1   6   7    2.55    0.38 
  -1   6   7    3.03    0.40 
  -1   6   7    2.61    0.51 
  -1   6   7    2.61    0.51 
  -1   6   6    0.39    0.43 
  -1   6   6    0.05    0.41 
  -1   6   6   -0.47    0.64 
  -1   6   6    1.44    0.60 
  -1   6   6    0.79    0.36 
  -1   6   6    0.45    0.38 
  -1   6   6    0.33    0.30 
  -1   6   6    0.88    0.48 
  -1   6   6    0.37    0.49 
  -1   6   5   18.39    0.88 
  -1   6   5   19.97    0.85 
  -1   6   5   17.69    0.83 
  -1   6   5   19.92    0.74 
  -1   6   5   16.78    0.62 
  -1   6   5   19.51    0.73 
  -1   6   5    6.40    0.88 
  -1   6   5    8.20    0.77 
  -1   6   5    8.90    0.79 
  -1   6   5    9.27    0.80 
  -1   6   5   21.30    0.94 
  -1   6   5   14.84    1.13 
  -1   6   4    4.67    0.55 
  -1   6   4    4.21    0.54 
  -1   6   4    4.78    0.46 
  -1   6   4    4.14    0.36 
  -1   6   4    4.82    0.46 
  -1   6   4    5.52    0.42 
  -1   6   4    5.31    0.65 
  -1   6   4    2.24    0.52 
  -1   6   4    2.53    0.53 
  -1   6   4    1.43    0.72 
  -1   6   4    2.19    0.68 
  -1   6   4    4.48    0.61 
  -1   6   3    0.07    0.48 
  -1   6   3   -0.27    0.33 
  -1   6   3    0.36    0.31 
  -1   6   3    0.43    0.32 
  -1   6   3    0.08    0.33 
  -1   6   3    0.03    0.44 
  -1   6   3    0.02    0.44 
  -1   6   3    0.66    0.68 
  -1   6   3   -0.01    0.36 
  -1   6   3   -0.29    0.39 
  -1   6   3    0.01    0.40 
  -1   6   2    0.37    0.39 
  -1   6   2    0.33    0.46 
  -1   6   2    0.14    0.30 
  -1   6   2    0.03    0.29 
  -1   6   2    0.11    0.58 
  -1   6   2    0.16    0.46 
  -1   6   2    0.18    0.44 
  -1   6   2    0.43    0.49 
  -1   6   2   -0.89    0.77 
  -1   6   1    2.37    0.45 
  -1   6   1    1.86    0.61 
  -1   6   1    1.88    0.30 
  -1   6   1    2.03    0.32 
  -1   6   1    2.31    0.57 
  -1   6   1    2.61    0.60 
  -1   6   1    1.39    0.53 
  -1   6   1    1.38    0.52 
  -1   6   1    2.54    0.71 
  -1   6   1    0.31    0.74 
  -1   6   1    0.76    0.75 
  -1   6   0    3.43    0.66 
  -1   6   0    3.25    0.70 
  -1   6   0    3.89    0.52 
  -1   6   0    2.69    0.72 
  -1   6   0    3.51    0.44 
  -1   6   0    3.37    0.43 
  -1   6   0    0.37    0.79 
  -1   6   0    1.08    0.78 
  -1   6   0    2.05    0.59 
  -1   6   0    2.47    0.59 
  -1   6   0    3.17    0.60 
  -1   6   0    4.13    0.65 
  -1   6   0    3.89    0.78 
  -1   6  -1    3.44    0.64 
  -1   6  -1    3.09    0.66 
  -1   6  -1    2.27    0.73 
  -1   6  -1    3.63    0.46 
  -1   6  -1    3.90    0.47 
  -1   6  -1    0.40    0.85 
  -1   6  -1    2.65    0.64 
  -1   6  -1    2.45    0.63 
  -1   6  -1    3.87    0.79 
  -1   6  -1    2.79    0.99 
  -1   6  -1    2.18    0.96 
  -1   6  -1    3.57    0.78 
  -1   6  -1    3.17    0.71 
  -1   6  -2    1.94    0.62 
  -1   6  -2    1.94    0.67 
  -1   6  -2    0.97    1.01 
  -1   6  -2    1.55    0.46 
  -1   6  -2    1.53    0.46 
  -1   6  -2    2.48    0.86 
  -1   6  -2    1.00    1.03 
  -1   6  -2    1.90    0.79 
  -1   6  -2    1.01    0.61 
  -1   6  -2    1.75    0.97 
  -1   6  -2    1.62    0.73 
  -1   6  -3    0.30    1.93 
  -1   6  -3    0.62    0.69 
  -1   6  -3   -0.22    0.78 
  -1   6  -3    0.29    0.67 
  -1   6  -3    0.57    0.56 
  -1   6  -3    0.69    0.60 
  -1   6  -3    1.61    0.64 
  -1   6  -3   -0.50    1.06 
  -1   6  -3    1.10    0.45 
  -1   6  -3    1.01    0.44 
  -1   6  -3    1.23    1.02 
  -1   6  -3    0.05    0.58 
  -1   6  -3    0.25    0.60 
  -1   6  -3   -0.26    0.92 
  -1   6  -3    0.65    1.07 
  -1   6  -3   -0.14    0.84 
  -1   6  -4    0.26    1.18 
  -1   6  -4    0.26    0.91 
  -1   6  -4    0.06    1.03 
  -1   6  -4    1.13    0.65 
  -1   6  -4    0.02    0.73 
  -1   6  -4   -0.15    0.69 
  -1   6  -4   -0.50    1.08 
  -1   6  -4    0.05    0.41 
  -1   6  -4    0.24    0.41 
  -1   6  -4   -0.18    0.99 
  -1   6  -4    0.29    0.51 
  -1   6  -4    0.09    0.76 
  -1   6  -4    1.50    0.94 
  -1   6  -4   -0.38    0.63 
  -1   6  -5    0.27    1.24 
  -1   6  -5   -0.62    0.94 
  -1   6  -5    0.91    0.64 
  -1   6  -5   -0.37    0.69 
  -1   6  -5    0.43    0.74 
  -1   6  -5    0.35    1.07 
  -1   6  -5   -0.02    0.37 
  -1   6  -5    0.06    0.37 
  -1   6  -5   -0.13    0.72 
  -1   6  -5    1.28    0.97 
  -1   6  -5   -0.90    0.62 
  -1   6  -6   -0.13    0.57 
  -1   6  -6    0.22    0.72 
  -1   6  -6   -0.43    0.70 
  -1   6  -6   -0.08    1.01 
  -1   6  -6   -0.03    0.31 
  -1   6  -6    0.08    0.31 
  -1   6  -6   -0.21    1.05 
  -1   6  -6    0.31    0.87 
  -1   6  -6    0.15    1.04 
  -1   6  -6   -0.58    1.26 
  -1   6  -6    0.10    0.93 
  -1   6  -6   -0.36    1.00 
  -1   6  -7    0.38    0.47 
  -1   6  -7   -0.12    0.67 
  -1   6  -7   -0.25    0.63 
  -1   6  -7   -1.34    1.00 
  -1   6  -7   -0.03    0.91 
  -1   6  -7   -0.14    0.92 
  -1   6  -7   -0.53    1.16 
  -1   6  -7   -0.07    0.80 
  -1   6  -7   -0.05    0.91 
  -1   6  -7   -0.70    0.78 
  -1   6  -8   -0.17    0.74 
  -1   6  -8   -0.72    0.87 
  -1   6  -8    0.50    0.72 
  -1   6  -8   -0.13    0.53 
  -1   6  -8    0.44    0.36 
  -1   6  -8   -0.29    0.59 
  -1   6  -8   -0.27    0.96 
  -1   6  -8    0.29    0.69 
  -1   6  -8   -0.16    0.77 
  -1   6  -9    2.16    0.88 
  -1   6  -9    0.35    0.74 
  -1   6 -10   -0.28    0.47 
  -1   5  10    0.78    0.39 
  -1   5   9    0.40    0.56 
  -1   5   9    0.33    0.34 
  -1   5   9    0.22    0.35 
  -1   5   8    0.83    0.43 
  -1   5   8    0.51    0.42 
  -1   5   8    1.71    0.51 
  -1   5   8    1.85    0.53 
  -1   5   8   -0.53    0.66 
  -1   5   8    0.41    0.50 
  -1   5   7    0.70    0.46 
  -1   5   7    0.75    0.49 
  -1   5   7   -0.31    0.59 
  -1   5   7   -0.19    0.71 
  -1   5   7    1.20    0.58 
  -1   5   7    1.50    0.57 
  -1   5   7    0.62    0.36 
  -1   5   6    0.86    0.56 
  -1   5   6    0.43    0.41 
  -1   5   6    0.25    0.42 
  -1   5   6    0.48    0.36 
  -1   5   6   -0.32    0.62 
  -1   5   6    0.22    0.71 
  -1   5   6    0.11    0.53 
  -1   5   6   -0.02    0.52 
  -1   5   6    0.16    0.74 
  -1   5   6    1.01    0.58 
  -1   5   6    1.19    0.58 
  -1   5   5    8.35    0.66 
  -1   5   5    7.68    0.62 
  -1   5   5    6.99    0.64 
  -1   5   5    7.24    0.64 
  -1   5   5    7.74    0.52 
  -1   5   5    6.57    0.45 
  -1   5   5    7.34    0.50 
  -1   5   5    2.50    0.62 
  -1   5   5    2.24    0.73 
  -1   5   5    4.23    0.62 
  -1   5   5    3.85    0.64 
  -1   5   5    6.61    0.89 
  -1   5   5    4.64    0.73 
  -1   5   4    0.66    0.43 
  -1   5   4    0.70    0.42 
  -1   5   4    0.14    0.30 
  -1   5   4    0.14    0.25 
  -1   5   4    0.50    0.28 
  -1   5   4    0.45    0.27 
  -1   5   4    0.21    0.30 
  -1   5   4   -0.23    0.56 
  -1   5   4   -0.28    0.61 
  -1   5   4    0.63    1.21 
  -1   5   4    0.31    0.51 
  -1   5   4    0.08    0.42 
  -1   5   4    0.07    0.42 
  -1   5   3    2.83    0.42 
  -1   5   3    3.21    0.44 
  -1   5   3    2.64    0.37 
  -1   5   3    3.03    0.34 
  -1   5   3    3.68    0.36 
  -1   5   3    3.79    0.33 
  -1   5   3    3.37    0.33 
  -1   5   3    3.14    0.29 
  -1   5   3    1.29    0.58 
  -1   5   3    1.99    0.57 
  -1   5   3    1.73    0.49 
  -1   5   3    1.83    0.48 
  -1   5   3    3.68    0.58 
  -1   5   3    2.06    0.60 
  -1   5   2   11.88    0.55 
  -1   5   2   10.30    0.52 
  -1   5   2    9.25    0.51 
  -1   5   2   11.16    0.48 
  -1   5   2   11.80    0.48 
  -1   5   2    8.74    0.71 
  -1   5   2    7.87    0.71 
  -1   5   2    9.35    0.79 
  -1   5   2    8.64    0.82 
  -1   5   1    1.20    0.46 
  -1   5   1    1.50    0.50 
  -1   5   1    2.41    0.39 
  -1   5   1    2.07    0.58 
  -1   5   1    1.57    0.27 
  -1   5   1    1.50    0.26 
  -1   5   1    2.14    0.60 
  -1   5   1    1.26    0.46 
  -1   5   1    1.87    0.48 
  -1   5   1    0.99    0.50 
  -1   5   1    1.29    0.52 
  -1   5   1    1.72    0.45 
  -1   5   0   19.65    0.91 
  -1   5   0   18.16    1.09 
  -1   5   0   18.99    0.95 
  -1   5   0   19.17    0.92 
  -1   5   0   17.82    0.87 
  -1   5   0   15.05    0.83 
  -1   5   0   16.80    0.54 
  -1   5   0   14.36    1.08 
  -1   5   0   18.21    0.64 
  -1   5   0   16.61    0.54 
  -1   5   0   18.49    0.64 
  -1   5   0   20.29    1.23 
  -1   5   0   16.00    1.23 
  -1   5   0   15.57    0.93 
  -1   5   0   15.15    0.93 
  -1   5  -1   21.12    1.44 
  -1   5  -1   19.70    1.06 
  -1   5  -1   20.66    1.09 
  -1   5  -1   25.70    1.30 
  -1   5  -1   21.76    1.03 
  -1   5  -1   22.63    0.75 
  -1   5  -1   22.16    0.75 
  -1   5  -1   19.86    0.94 
  -1   5  -1   20.37    0.98 
  -1   5  -1   25.72    1.12 
  -1   5  -1   24.31    1.04 
  -1   5  -1   25.90    1.33 
  -1   5  -1   19.89    1.28 
  -1   5  -1   20.07    1.32 
  -1   5  -1   20.13    1.32 
  -1   5  -2    3.20    0.56 
  -1   5  -2    1.59    0.64 
  -1   5  -2    1.89    0.60 
  -1   5  -2    1.67    0.92 
  -1   5  -2    2.84    0.42 
  -1   5  -2    3.21    0.43 
  -1   5  -2    2.21    0.91 
  -1   5  -2    2.66    0.74 
  -1   5  -2    4.99    0.95 
  -1   5  -2    1.96    0.70 
  -1   5  -2    2.51    0.78 
  -1   5  -2    2.38    0.75 
  -1   5  -2    2.05    0.75 
  -1   5  -2    2.39    0.78 
  -1   5  -2    2.53    0.61 
  -1   5  -2    3.35    0.61 
  -1   5  -3   21.54    1.07 
  -1   5  -3   25.02    1.17 
  -1   5  -3   24.43    1.10 
  -1   5  -3   21.90    1.81 
  -1   5  -3   25.00    0.87 
  -1   5  -3   23.65    0.88 
  -1   5  -3   21.51    1.45 
  -1   5  -3   20.98    1.76 
  -1   5  -3   27.14    1.40 
  -1   5  -3   21.08    1.19 
  -1   5  -3   33.09    1.71 
  -1   5  -3   24.48    1.20 
  -1   5  -3   31.93    1.25 
  -1   5  -3   20.84    1.47 
  -1   5  -3   18.37    1.45 
  -1   5  -3   17.90    1.47 
  -1   5  -4   13.98    1.24 
  -1   5  -4   13.73    1.23 
  -1   5  -4   12.74    1.30 
  -1   5  -4   10.10    1.25 
  -1   5  -4   19.38    1.36 
  -1   5  -4   15.02    1.22 
  -1   5  -4    4.15    1.59 
  -1   5  -4   12.67    0.90 
  -1   5  -4   16.21    1.11 
  -1   5  -4   14.28    1.02 
  -1   5  -4   14.25    0.99 
  -1   5  -4   14.80    1.72 
  -1   5  -4   15.17    0.74 
  -1   5  -4   14.85    0.73 
  -1   5  -4   21.53    1.09 
  -1   5  -4   11.74    1.13 
  -1   5  -4   13.72    1.61 
  -1   5  -5    0.89    1.28 
  -1   5  -5    1.19    1.44 
  -1   5  -5    0.50    1.15 
  -1   5  -5    3.50    0.62 
  -1   5  -5    3.37    0.81 
  -1   5  -5    5.97    1.01 
  -1   5  -5    4.70    0.92 
  -1   5  -5    3.06    1.35 
  -1   5  -5    3.31    0.51 
  -1   5  -5    3.22    0.52 
  -1   5  -5    2.32    0.98 
  -1   5  -5    2.72    1.37 
  -1   5  -5    3.53    1.01 
  -1   5  -5    2.65    1.22 
  -1   5  -6    0.49    0.99 
  -1   5  -6   -0.07    0.69 
  -1   5  -6    1.15    0.85 
  -1   5  -6    2.42    0.94 
  -1   5  -6    0.62    1.25 
  -1   5  -6   -0.16    0.39 
  -1   5  -6    0.18    0.38 
  -1   5  -6    0.42    1.21 
  -1   5  -6   -0.32    1.07 
  -1   5  -6    0.09    1.38 
  -1   5  -6    0.26    1.09 
  -1   5  -6    0.58    1.19 
  -1   5  -6    0.06    0.81 
  -1   5  -7    0.57    1.41 
  -1   5  -7    0.51    1.10 
  -1   5  -7   -0.94    1.17 
  -1   5  -7    0.51    0.92 
  -1   5  -7   -0.50    0.63 
  -1   5  -7    1.79    0.85 
  -1   5  -7    1.84    0.92 
  -1   5  -8    1.40    1.29 
  -1   5  -8    3.30    0.92 
  -1   5  -8    2.69    1.08 
  -1   5  -8    6.60    0.95 
  -1   5  -8    5.29    0.87 
  -1   5  -8    1.08    0.55 
  -1   5  -9    0.77    0.81 
  -1   5  -9    2.17    0.71 
  -1   5  -9    2.32    0.75 
  -1   5  -9    0.73    1.10 
  -1   5 -10    1.57    0.93 
  -1   5 -10    1.46    0.58 
  -1   5 -10    0.81    0.61 
  -1   5 -10    0.79    1.26 
  -1   4  11    0.13    0.31 
  -1   4   9    2.72    0.55 
  -1   4   9    2.98    0.56 
  -1   4   9    6.82    0.59 
  -1   4   9    6.81    0.60 
  -1   4   9    0.97    0.51 
  -1   4   9    4.46    0.79 
  -1   4   8    5.12    0.71 
  -1   4   8    5.35    0.70 
  -1   4   7  108.22    3.21 
  -1   4   7  143.41    2.69 
  -1   4   7  145.10    2.72 
  -1   4   7  144.22    2.70 
  -1   4   7  185.29    3.22 
  -1   4   7  138.15    3.22 
  -1   4   7  138.61    3.05 
  -1   4   7   90.79    3.05 
  -1   4   7   91.63    3.04 
  -1   4   7  141.81    3.86 
  -1   4   7  229.17    4.30 
  -1   4   7  208.70    3.63 
  -1   4   6    0.75    0.54 
  -1   4   6    0.11    0.54 
  -1   4   6    0.14    0.50 
  -1   4   6    0.54    0.35 
  -1   4   6   -0.05    0.79 
  -1   4   6    0.23    0.68 
  -1   4   6    0.18    0.48 
  -1   4   6    0.36    0.51 
  -1   4   6   -0.30    0.49 
  -1   4   6    0.60    1.09 
  -1   4   6    0.49    0.83 
  -1   4   6    0.31    0.70 
  -1   4   5   72.60    2.20 
  -1   4   5   76.33    1.87 
  -1   4   5   55.37    1.38 
  -1   4   5   50.30    1.32 
  -1   4   5   54.03    1.34 
  -1   4   5   54.82    1.34 
  -1   4   5   52.13    1.21 
  -1   4   5   52.35    1.21 
  -1   4   5   52.24    1.16 
  -1   4   5   51.42    1.60 
  -1   4   5   46.92    1.44 
  -1   4   5   34.84    1.46 
  -1   4   5   35.86    1.49 
  -1   4   5   38.04    1.56 
  -1   4   5   51.73    1.92 
  -1   4   4    8.17    0.51 
  -1   4   4    8.31    0.51 
  -1   4   4    8.86    0.42 
  -1   4   4    5.59    0.36 
  -1   4   4    9.28    0.43 
  -1   4   4    5.77    0.36 
  -1   4   4    8.33    0.38 
  -1   4   4    9.25    0.56 
  -1   4   4    5.88    0.59 
  -1   4   4    6.58    0.62 
  -1   4   4    7.30    0.75 
  -1   4   4    9.04    0.53 
  -1   4   3    2.60    0.38 
  -1   4   3    1.96    0.36 
  -1   4   3    2.09    0.35 
  -1   4   3    2.34    0.30 
  -1   4   3    2.97    0.30 
  -1   4   3    2.16    0.25 
  -1   4   3    2.55    0.28 
  -1   4   3    2.32    0.25 
  -1   4   3    2.26    0.25 
  -1   4   3    3.07    0.41 
  -1   4   3    2.17    0.41 
  -1   4   3    1.99    0.41 
  -1   4   3    2.01    0.51 
  -1   4   3    2.70    0.51 
  -1   4   3    2.29    0.50 
  -1   4   2   99.04    2.00 
  -1   4   2  100.26    2.00 
  -1   4   2  113.98    2.03 
  -1   4   2  126.01    2.53 
  -1   4   2  114.60    1.99 
  -1   4   2  107.62    1.89 
  -1   4   2  113.51    1.98 
  -1   4   2  106.16    2.44 
  -1   4   2  103.21    2.41 
  -1   4   2  102.08    2.54 
  -1   4   2  115.80    2.44 
  -1   4   1   68.38    1.93 
  -1   4   1   74.10    1.63 
  -1   4   1   76.34    1.47 
  -1   4   1   67.65    1.35 
  -1   4   1   67.37    1.35 
  -1   4   1   85.35    1.71 
  -1   4   1   68.42    1.61 
  -1   4   1   70.08    1.65 
  -1   4   1   64.47    1.77 
  -1   4   1   67.11    1.78 
  -1   4   1   71.76    1.73 
  -1   4   1   86.72    2.18 
  -1   4   0   56.80    1.48 
  -1   4   0   53.30    1.78 
  -1   4   0   58.88    1.53 
  -1   4   0   68.83    1.34 
  -1   4   0   68.70    1.33 
  -1   4   0   73.02    1.60 
  -1   4   0   64.72    1.83 
  -1   4   0   77.55    1.70 
  -1   4   0   69.78    1.61 
  -1   4   0   63.96    2.03 
  -1   4   0   65.03    1.76 
  -1   4   0   64.51    1.76 
  -1   4   0   71.83    2.09 
  -1   4   0   60.43    1.53 
  -1   4  -1   90.28    2.53 
  -1   4  -1   90.98    2.55 
  -1   4  -1   85.93    1.87 
  -1   4  -1   81.43    1.89 
  -1   4  -1   73.56    2.52 
  -1   4  -1   62.79    1.77 
  -1   4  -1   82.27    1.66 
  -1   4  -1   85.24    1.68 
  -1   4  -1  103.07    2.14 
  -1   4  -1   95.81    1.99 
  -1   4  -1  100.64    2.36 
  -1   4  -1   88.07    2.17 
  -1   4  -1   90.76    2.17 
  -1   4  -1   96.03    2.22 
  -1   4  -1   92.51    1.96 
  -1   4  -1   84.56    2.34 
  -1   4  -1   71.58    2.27 
  -1   4  -1   89.03    2.32 
  -1   4  -2   91.18    2.47 
  -1   4  -2   79.35    2.43 
  -1   4  -2   93.66    2.47 
  -1   4  -2   97.44    2.25 
  -1   4  -2   80.76    2.02 
  -1   4  -2  112.29    2.63 
  -1   4  -2   70.48    1.98 
  -1   4  -2   69.90    1.92 
  -1   4  -2   87.03    2.01 
  -1   4  -2   86.80    1.96 
  -1   4  -2   71.28    1.91 
  -1   4  -2   86.21    2.76 
  -1   4  -2   81.92    1.76 
  -1   4  -2   80.72    1.74 
  -1   4  -2   96.45    2.34 
  -1   4  -2   94.54    2.38 
  -1   4  -2  107.67    2.30 
  -1   4  -2  108.25    2.11 
  -1   4  -2   90.66    2.79 
  -1   4  -2   93.96    2.72 
  -1   4  -3  103.33    2.82 
  -1   4  -3  105.25    2.82 
  -1   4  -3   87.53    2.75 
  -1   4  -3   87.69    2.33 
  -1   4  -3  105.78    2.58 
  -1   4  -3  120.89    3.02 
  -1   4  -3   61.58    2.10 
  -1   4  -3   82.32    2.18 
  -1   4  -3  101.55    2.24 
  -1   4  -3  102.56    2.29 
  -1   4  -3   91.06    2.19 
  -1   4  -3  106.04    3.23 
  -1   4  -3  104.39    2.01 
  -1   4  -3  101.73    2.02 
  -1   4  -3  108.65    2.43 
  -1   4  -3  108.10    2.40 
  -1   4  -3  129.13    2.41 
  -1   4  -3  101.76    2.94 
  -1   4  -3  105.21    3.22 
  -1   4  -4    6.99    1.36 
  -1   4  -4    8.64    0.87 
  -1   4  -4    8.08    1.02 
  -1   4  -4    7.37    1.25 
  -1   4  -4    3.78    0.65 
  -1   4  -4    9.99    1.15 
  -1   4  -4    5.53    0.66 
  -1   4  -4    7.12    0.90 
  -1   4  -4    8.20    0.85 
  -1   4  -4    7.95    0.82 
  -1   4  -4    6.66    1.31 
  -1   4  -4    6.72    0.56 
  -1   4  -4    6.38    0.55 
  -1   4  -4    5.38    0.96 
  -1   4  -4    6.24    1.01 
  -1   4  -4    5.32    0.96 
  -1   4  -4    6.52    1.24 
  -1   4  -4    5.17    0.92 
  -1   4  -5   36.55    1.93 
  -1   4  -5   31.68    1.98 
  -1   4  -5   31.80    1.27 
  -1   4  -5   28.93    1.70 
  -1   4  -5   24.05    1.58 
  -1   4  -5   29.67    0.96 
  -1   4  -5   33.40    1.00 
  -1   4  -5   43.03    1.54 
  -1   4  -5   31.15    2.14 
  -1   4  -5   16.95    1.30 
  -1   4  -5   23.36    1.56 
  -1   4  -6    1.54    1.38 
  -1   4  -6    6.23    1.29 
  -1   4  -6    4.86    0.85 
  -1   4  -6    5.35    1.07 
  -1   4  -6    5.51    0.53 
  -1   4  -6    4.09    0.51 
  -1   4  -6    4.97    1.40 
  -1   4  -6    8.67    0.80 
  -1   4  -6    8.07    0.92 
  -1   4  -6    1.60    1.09 
  -1   4  -7    2.14    0.75 
  -1   4  -7    2.34    0.93 
  -1   4  -7    4.16    0.84 
  -1   4  -7    2.98    1.08 
  -1   4  -7    4.23    1.33 
  -1   4  -7    5.05    0.72 
  -1   4  -7    0.02    1.23 
  -1   4  -8    0.49    0.93 
  -1   4  -8    0.25    1.11 
  -1   4  -8    0.01    0.63 
  -1   4  -8    0.49    0.71 
  -1   4  -9   26.51    2.02 
  -1   4  -9   22.47    1.76 
  -1   4  -9    2.80    1.54 
  -1   4  -9    2.44    1.52 
  -1   4  -9   34.60    1.45 
  -1   4  -9   41.05    1.54 
  -1   4  -9   21.90    1.50 
  -1   4 -10    2.53    1.23 
  -1   4 -10    3.04    0.81 
  -1   4 -10    2.09    0.82 
  -1   4 -10    2.16    0.75 
  -1   4 -10    3.47    0.82 
  -1   4 -11    2.89    1.32 
  -1   3  11    0.73    0.47 
  -1   3  10    0.62    0.41 
  -1   3  10    0.41    0.39 
  -1   3  10    1.32    0.65 
  -1   3  10    0.23    1.03 
  -1   3  10    2.50    0.78 
  -1   3   9   -0.02    0.51 
  -1   3   9    0.40    0.49 
  -1   3   9    0.66    0.72 
  -1   3   9    1.09    0.47 
  -1   3   9    0.82    0.52 
  -1   3   9    1.17    0.52 
  -1   3   9    0.23    1.12 
  -1   3   9    1.68    0.85 
  -1   3   8   91.56    2.74 
  -1   3   8   99.82    2.69 
  -1   3   8   97.22    2.42 
  -1   3   8   80.50    2.69 
  -1   3   8   80.26    2.68 
  -1   3   8  166.34    3.07 
  -1   3   8  195.24    3.81 
  -1   3   8  121.07    2.43 
  -1   3   8  123.65    2.43 
  -1   3   7  181.91    3.14 
  -1   3   7  188.00    3.69 
  -1   3   7  116.16    2.29 
  -1   3   7  114.65    2.28 
  -1   3   7  115.18    2.28 
  -1   3   7  112.01    2.78 
  -1   3   7   97.79    2.50 
  -1   3   7   85.88    6.85 
  -1   3   7   91.87    7.63 
  -1   3   7  143.93    3.72 
  -1   3   7  118.83    3.33 
  -1   3   7   93.28    2.75 
  -1   3   6   39.54    1.51 
  -1   3   6   48.01    1.15 
  -1   3   6   50.20    1.14 
  -1   3   6   48.19    1.15 
  -1   3   6   50.44    1.55 
  -1   3   6   44.45    1.37 
  -1   3   6   37.72    1.51 
  -1   3   6   37.53    1.50 
  -1   3   6   84.28    1.85 
  -1   3   6   77.50    2.17 
  -1   3   6   49.30    1.89 
  -1   3   6   62.63    2.19 
  -1   3   5    6.35    0.46 
  -1   3   5    6.28    0.47 
  -1   3   5    4.36    0.54 
  -1   3   5    5.96    0.35 
  -1   3   5    6.73    0.46 
  -1   3   5    4.64    0.54 
  -1   3   5    3.90    0.52 
  -1   3   5    6.83    0.86 
  -1   3   5    5.07    0.69 
  -1   3   5    5.54    0.41 
  -1   3   4    0.74    0.39 
  -1   3   4    1.31    0.25 
  -1   3   4    1.21    0.23 
  -1   3   4    1.27    0.24 
  -1   3   4    0.53    0.45 
  -1   3   4    1.02    0.58 
  -1   3   4    0.56    0.35 
  -1   3   4    0.72    0.38 
  -1   3   4    1.06    0.30 
  -1   3   4    1.35    0.32 
  -1   3   4    1.01    0.33 
  -1   3   4    1.17    0.34 
  -1   3   3  122.90    2.07 
  -1   3   3  102.20    1.93 
  -1   3   3  104.17    1.88 
  -1   3   3  102.39    1.94 
  -1   3   3  107.54    1.89 
  -1   3   3  108.18    1.89 
  -1   3   3  103.88    1.82 
  -1   3   3  108.08    1.84 
  -1   3   3  101.07    1.82 
  -1   3   3  109.49    2.32 
  -1   3   3  107.23    2.39 
  -1   3   3  123.24    2.08 
  -1   3   3   99.05    2.28 
  -1   3   3   98.92    2.27 
  -1   3   2  154.05    2.61 
  -1   3   2  149.40    2.61 
  -1   3   2  158.24    3.05 
  -1   3   2  152.84    3.04 
  -1   3   2  152.00    2.98 
  -1   3   1  443.53    7.14 
  -1   3   1  437.74    7.15 
  -1   3   1  465.97    7.45 
  -1   3   1  424.75    7.63 
  -1   3   1  458.04    7.62 
  -1   3   1  451.36    7.62 
  -1   3   0   75.99    1.78 
  -1   3   0   71.26    1.52 
  -1   3   0   84.96    1.83 
  -1   3   0   83.23    1.83 
  -1   3   0   64.43    1.96 
  -1   3   0   67.04    1.52 
  -1   3   0   89.89    2.04 
  -1   3   0   75.18    1.81 
  -1   3  -1   27.38    0.92 
  -1   3  -1   24.72    0.77 
  -1   3  -1   27.30    1.00 
  -1   3  -1   27.01    0.99 
  -1   3  -1   19.29    0.68 
  -1   3  -1   23.69    1.19 
  -1   3  -1   23.18    1.01 
  -1   3  -1   23.60    0.99 
  -1   3  -1   23.28    1.04 
  -1   3  -1   20.83    1.03 
  -1   3  -1   22.59    1.16 
  -1   3  -2   90.69    1.86 
  -1   3  -2   91.12    1.98 
  -1   3  -2   90.69    2.19 
  -1   3  -2   89.95    2.16 
  -1   3  -2   81.91    1.89 
  -1   3  -2   87.45    2.23 
  -1   3  -2   86.09    2.21 
  -1   3  -2   81.98    2.19 
  -1   3  -2   83.15    2.49 
  -1   3  -2   81.27    2.35 
  -1   3  -3    0.88    0.66 
  -1   3  -3   -0.41    0.59 
  -1   3  -3    1.06    0.45 
  -1   3  -3    0.87    0.45 
  -1   3  -3    0.46    1.04 
  -1   3  -3    0.86    0.62 
  -1   3  -3    0.92    0.98 
  -1   3  -3    1.76    0.78 
  -1   3  -3    0.76    0.70 
  -1   3  -3    0.88    0.73 
  -1   3  -4   73.46    2.23 
  -1   3  -4   73.48    2.21 
  -1   3  -4  102.36    2.35 
  -1   3  -4  121.78    2.74 
  -1   3  -4   93.67    2.28 
  -1   3  -4  109.98    2.08 
  -1   3  -4  106.51    2.06 
  -1   3  -4  115.47    3.29 
  -1   3  -4   98.15    3.06 
  -1   3  -4  112.94    3.25 
  -1   3  -4  143.73    2.60 
  -1   3  -4  121.10    2.74 
  -1   3  -4  117.22    2.81 
  -1   3  -5    1.35    0.58 
  -1   3  -5    1.65    0.62 
  -1   3  -5    1.33    0.75 
  -1   3  -5    1.68    0.70 
  -1   3  -5   -0.84    0.78 
  -1   3  -5    1.29    0.83 
  -1   3  -5    1.80    0.84 
  -1   3  -5    1.79    0.60 
  -1   3  -5    1.17    0.95 
  -1   3  -5    2.30    1.11 
  -1   3  -5    1.60    0.68 
  -1   3  -5    1.66    0.68 
  -1   3  -5    2.13    0.72 
  -1   3  -5    2.38    0.49 
  -1   3  -6    5.13    0.86 
  -1   3  -6    6.41    0.91 
  -1   3  -6    4.90    1.02 
  -1   3  -6    4.25    0.99 
  -1   3  -6    7.19    0.86 
  -1   3  -6    5.45    1.16 
  -1   3  -6    5.59    1.27 
  -1   3  -6    4.87    0.83 
  -1   3  -6    5.47    0.88 
  -1   3  -6    4.81    0.82 
  -1   3  -6    6.96    0.69 
  -1   3  -7    4.69    0.97 
  -1   3  -7    0.65    0.81 
  -1   3  -7    4.17    1.01 
  -1   3  -7    3.12    1.33 
  -1   3  -7    2.62    1.00 
  -1   3  -7    1.92    1.01 
  -1   3  -7    5.02    0.87 
  -1   3  -7    3.89    1.17 
  -1   3  -7    3.42    1.28 
  -1   3  -7    2.95    0.86 
  -1   3  -7    4.13    0.68 
  -1   3  -8    1.70    1.29 
  -1   3  -8    0.67    0.80 
  -1   3  -8    2.16    0.72 
  -1   3  -8    1.96    0.99 
  -1   3  -8    0.88    1.03 
  -1   3  -8    0.25    1.16 
  -1   3  -8    0.41    1.01 
  -1   3  -8    1.95    0.79 
  -1   3  -9    8.68    0.79 
  -1   3  -9   37.28    1.76 
  -1   3  -9   20.70    1.76 
  -1   3  -9   26.86    1.55 
  -1   3  -9   26.06    1.49 
  -1   3  -9   19.15    1.52 
  -1   3  -9   22.10    1.90 
  -1   3 -10    0.32    0.91 
  -1   3 -10    0.55    1.27 
  -1   3 -10    0.64    1.28 
  -1   3 -10    1.24    0.97 
  -1   3 -10    1.42    0.93 
  -1   3 -10    0.17    1.00 
  -1   3 -11    3.56    0.77 
  -1   3 -11    3.82    0.75 
  -1   3 -11    4.09    0.80 
  -1   3 -11    4.26    0.83 
  -1   2  12    2.64    0.34 
  -1   2  11   -0.16    0.32 
  -1   2  11   -0.12    0.33 
  -1   2  11    0.16    0.51 
  -1   2  11    0.01    0.32 
  -1   2  11    0.05    0.32 
  -1   2  10    6.32    0.70 
  -1   2  10    5.43    0.66 
  -1   2  10    0.65    0.52 
  -1   2  10    0.84    0.54 
  -1   2  10    8.08    0.83 
  -1   2   9   31.10    1.50 
  -1   2   9   31.62    1.49 
  -1   2   9   38.42    1.51 
  -1   2   9   41.03    1.25 
  -1   2   9   37.29    1.05 
  -1   2   9   46.37    1.24 
  -1   2   9   46.62    1.25 
  -1   2   8    0.45    0.55 
  -1   2   8   -0.07    0.47 
  -1   2   8   -0.13    0.65 
  -1   2   8    0.48    0.53 
  -1   2   8    0.18    0.41 
  -1   2   8    0.59    0.54 
  -1   2   8    0.07    0.54 
  -1   2   8   -0.01    0.40 
  -1   2   8   -0.04    0.52 
  -1   2   8    0.09    1.03 
  -1   2   8   -0.32    0.69 
  -1   2   8    0.16    0.43 
  -1   2   7  103.95    2.63 
  -1   2   7  117.61    2.24 
  -1   2   7  117.39    2.25 
  -1   2   7   94.47    1.99 
  -1   2   7   88.18    2.77 
  -1   2   7  113.74    2.04 
  -1   2   7  116.59    2.11 
  -1   2   7   95.58    2.69 
  -1   2   7   96.46    2.67 
  -1   2   7  110.17    2.55 
  -1   2   7  107.02    2.32 
  -1   2   7   98.00    2.29 
  -1   2   7  136.53    3.73 
  -1   2   7  114.92    3.07 
  -1   2   6    2.14    0.38 
  -1   2   6    1.76    0.38 
  -1   2   6    1.25    0.41 
  -1   2   6    1.96    0.28 
  -1   2   6    1.88    0.27 
  -1   2   6    1.52    0.42 
  -1   2   6    1.55    0.42 
  -1   2   6    1.94    0.29 
  -1   2   6    1.55    0.44 
  -1   2   6    1.09    0.43 
  -1   2   6    1.29    0.53 
  -1   2   6    2.27    0.83 
  -1   2   5    0.32    0.30 
  -1   2   5    0.17    0.21 
  -1   2   5    0.20    0.21 
  -1   2   5    0.00    0.20 
  -1   2   5    0.19    0.30 
  -1   2   5   -0.09    0.23 
  -1   2   5    0.15    0.31 
  -1   2   5    0.17    0.34 
  -1   2   5   -0.04    0.34 
  -1   2   5    0.16    0.65 
  -1   2   5    0.16    0.42 
  -1   2   4    0.05    0.40 
  -1   2   4    0.63    0.32 
  -1   2   4    0.33    0.20 
  -1   2   4    0.35    0.25 
  -1   2   4    0.64    0.27 
  -1   2   4    0.39    0.35 
  -1   2   4    0.17    0.34 
  -1   2   4   -0.14    0.60 
  -1   2   4    0.37    0.42 
  -1   2   4    0.26    0.30 
  -1   2   4    0.37    0.31 
  -1   2   3   29.79    0.59 
  -1   2   3   30.42    0.61 
  -1   2   3   23.53    0.55 
  -1   2   3   23.61    0.56 
  -1   2   3   30.22    0.62 
  -1   2   3   36.55    1.12 
  -1   2   3   29.72    0.97 
  -1   2   3   23.63    0.81 
  -1   2   3   28.15    0.87 
  -1   2   3   27.54    0.87 
  -1   2   2  310.69    5.22 
  -1   2   2  315.26    5.27 
  -1   2   2  311.95    5.27 
  -1   2   1  106.41    2.12 
  -1   2   1  106.69    2.17 
  -1   2   0  126.84    2.12 
  -1   2   0  118.76    2.38 
  -1   2   0  124.07    2.31 
  -1   2   0  131.64    2.46 
  -1   2   0  131.70    2.39 
  -1   2  -1  127.25    2.69 
  -1   2  -1  134.94    2.52 
  -1   2  -1  131.50    2.44 
  -1   2  -1  125.72    2.42 
  -1   2  -1  137.69    2.32 
  -1   2  -1  115.05    2.24 
  -1   2  -1  119.63    2.25 
  -1   2  -2   92.71    2.49 
  -1   2  -2  104.61    2.10 
  -1   2  -2  112.56    2.26 
  -1   2  -2  108.57    2.29 
  -1   2  -2  112.08    2.32 
  -1   2  -2  109.26    2.59 
  -1   2  -2  116.69    2.35 
  -1   2  -2  117.17    2.10 
  -1   2  -2  108.28    2.26 
  -1   2  -2  100.59    2.54 
  -1   2  -2   91.04    2.48 
  -1   2  -3   -0.24    0.66 
  -1   2  -3   -0.18    0.66 
  -1   2  -3    0.16    0.49 
  -1   2  -3    0.13    0.54 
  -1   2  -3    0.16    0.51 
  -1   2  -3    0.59    0.54 
  -1   2  -3   -0.68    0.88 
  -1   2  -3    0.17    0.49 
  -1   2  -3    0.07    0.32 
  -1   2  -3    0.41    0.79 
  -1   2  -3   -0.22    0.80 
  -1   2  -4  153.26    3.73 
  -1   2  -4  163.85    3.91 
  -1   2  -4  142.04    4.02 
  -1   2  -4  145.10    3.15 
  -1   2  -4  149.63    3.15 
  -1   2  -4  149.38    3.72 
  -1   2  -4  235.59    3.55 
  -1   2  -4  178.44    3.53 
  -1   2  -4  159.50    3.41 
  -1   2  -4  166.28    4.03 
  -1   2  -4  195.93    3.24 
  -1   2  -4  173.98    3.42 
  -1   2  -4  204.96    3.48 
  -1   2  -4  174.11    3.49 
  -1   2  -4  177.71    3.42 
  -1   2  -5   10.14    0.85 
  -1   2  -5   11.82    0.92 
  -1   2  -5    5.98    0.71 
  -1   2  -5    6.63    0.70 
  -1   2  -5   11.79    0.80 
  -1   2  -5   11.77    0.83 
  -1   2  -5   14.18    1.02 
  -1   2  -5   12.01    1.33 
  -1   2  -5   12.07    1.36 
  -1   2  -5   14.82    0.88 
  -1   2  -5   11.93    1.07 
  -1   2  -5   11.19    1.00 
  -1   2  -5    8.04    0.74 
  -1   2  -5    9.51    1.16 
  -1   2  -5   12.16    1.24 
  -1   2  -5   10.52    1.24 
  -1   2  -5    9.51    0.82 
  -1   2  -5   13.44    0.70 
  -1   2  -6    1.31    0.57 
  -1   2  -6    1.38    0.56 
  -1   2  -6    1.65    0.59 
  -1   2  -6    1.20    0.64 
  -1   2  -6    1.24    0.66 
  -1   2  -6    1.83    0.82 
  -1   2  -6    1.41    0.75 
  -1   2  -6    1.77    0.98 
  -1   2  -6    1.30    0.94 
  -1   2  -6    1.13    0.57 
  -1   2  -6    0.93    0.58 
  -1   2  -6    0.91    0.57 
  -1   2  -6    1.79    0.89 
  -1   2  -6    1.03    0.85 
  -1   2  -6    0.68    0.83 
  -1   2  -6    2.25    0.49 
  -1   2  -7    5.52    0.86 
  -1   2  -7    4.84    0.75 
  -1   2  -7    4.85    0.75 
  -1   2  -7    5.89    0.84 
  -1   2  -7    7.57    0.92 
  -1   2  -7    5.98    1.08 
  -1   2  -7    6.21    1.13 
  -1   2  -7    6.82    1.27 
  -1   2  -7    5.95    1.23 
  -1   2  -7    4.01    0.76 
  -1   2  -7    3.31    0.76 
  -1   2  -7    6.77    1.10 
  -1   2  -7    6.64    1.06 
  -1   2  -7    4.72    1.02 
  -1   2  -7    8.08    0.77 
  -1   2  -8    1.86    0.93 
  -1   2  -8    1.42    0.88 
  -1   2  -8    1.03    1.11 
  -1   2  -8    0.23    1.03 
  -1   2  -8   -0.27    0.92 
  -1   2  -8    0.36    1.06 
  -1   2  -8    0.44    1.09 
  -1   2  -8    0.43    0.91 
  -1   2  -8    0.23    0.94 
  -1   2  -8   -0.08    0.67 
  -1   2  -9   -0.35    0.95 
  -1   2  -9   -0.73    1.03 
  -1   2  -9   -0.13    1.39 
  -1   2  -9   -0.43    0.90 
  -1   2  -9    0.40    0.70 
  -1   2  -9    0.03    1.04 
  -1   2  -9   -0.27    1.13 
  -1   2 -10    6.60    1.05 
  -1   2 -10    4.72    1.11 
  -1   2 -10    4.73    1.22 
  -1   2 -11    5.19    0.92 
  -1   2 -11    3.81    0.90 
  -1   2 -12   -0.41    1.42 
  -1   1  11   -0.02    0.37 
  -1   1  11    0.04    0.37 
  -1   1  10    0.10    0.51 
  -1   1  10    4.09    0.58 
  -1   1   9    0.78    0.45 
  -1   1   9    0.90    0.45 
  -1   1   9    1.12    0.53 
  -1   1   9    0.98    0.42 
  -1   1   8    2.85    1.13 
  -1   1   8    1.98    0.57 
  -1   1   8    3.34    0.53 
  -1   1   8    2.67    0.49 
  -1   1   8    3.40    0.54 
  -1   1   8    3.43    0.80 
  -1   1   8    3.62    0.69 
  -1   1   8    3.57    0.46 
  -1   1   8    3.06    0.46 
  -1   1   8    2.86    0.56 
  -1   1   7    1.29    0.44 
  -1   1   7    1.17    0.89 
  -1   1   7    0.85    0.49 
  -1   1   7    1.48    0.41 
  -1   1   7    0.93    0.39 
  -1   1   7    1.48    0.41 
  -1   1   7    0.70    0.62 
  -1   1   7    1.03    0.51 
  -1   1   7    1.28    0.41 
  -1   1   7    1.28    0.40 
  -1   1   7    1.85    0.37 
  -1   1   7    0.96    0.44 
  -1   1   7    0.99    0.34 
  -1   1   6    2.49    0.58 
  -1   1   6    2.88    0.51 
  -1   1   6    2.69    0.31 
  -1   1   6    2.76    0.28 
  -1   1   6    3.16    0.38 
  -1   1   6    2.19    0.34 
  -1   1   6    3.05    0.37 
  -1   1   6    2.30    0.59 
  -1   1   6    3.03    0.50 
  -1   1   6    3.50    0.88 
  -1   1   6    2.35    0.40 
  -1   1   6    2.18    0.41 
  -1   1   6    2.24    0.42 
  -1   1   5  129.35    2.89 
  -1   1   5  135.41    2.95 
  -1   1   5  138.08    2.35 
  -1   1   5  140.37    2.41 
  -1   1   5  143.06    2.41 
  -1   1   5  138.41    2.48 
  -1   1   5  140.94    2.48 
  -1   1   5  149.64    3.04 
  -1   1   5  133.58    2.82 
  -1   1   5  121.33    2.75 
  -1   1   5  120.24    2.75 
  -1   1   5  142.79    2.80 
  -1   1   4   18.44    0.73 
  -1   1   4   19.98    0.49 
  -1   1   4   19.71    0.47 
  -1   1   4   20.31    0.50 
  -1   1   4   17.84    0.78 
  -1   1   4   21.15    0.79 
  -1   1   4   20.59    0.72 
  -1   1   4   18.57    0.73 
  -1   1   4   17.92    0.70 
  -1   1   3    2.35    0.34 
  -1   1   3    2.79    0.28 
  -1   1   3    2.77    0.28 
  -1   1   2  202.29    3.48 
  -1   1   2  202.24    3.48 
  -1   1   1  831.22   13.16 
  -1   1   0    0.35    0.15 
  -1   1  -1 2082.39   32.37 
  -1   1  -1 2066.64   32.37 
  -1   1  -2  191.09    3.35 
  -1   1  -2  219.89    3.20 
  -1   1  -2  196.83    3.83 
  -1   1  -2  164.87    3.62 
  -1   1  -2  166.06    3.62 
  -1   1  -2  193.14    3.35 
  -1   1  -2  191.35    3.38 
  -1   1  -3  166.07    2.83 
  -1   1  -3  152.89    2.78 
  -1   1  -3   79.76    2.64 
  -1   1  -3  170.06    2.67 
  -1   1  -3  144.94    3.15 
  -1   1  -3  161.94    3.39 
  -1   1  -3  216.02    2.84 
  -1   1  -3  165.31    2.88 
  -1   1  -3  165.38    3.00 
  -1   1  -3  169.32    2.82 
  -1   1  -3  211.12    2.83 
  -1   1  -3  149.12    3.15 
  -1   1  -3  154.12    3.24 
  -1   1  -4   72.18    1.51 
  -1   1  -4   65.99    1.48 
  -1   1  -4   67.15    1.86 
  -1   1  -4   67.95    2.09 
  -1   1  -4   66.19    1.44 
  -1   1  -4   73.75    1.55 
  -1   1  -4   77.10    1.75 
  -1   1  -4   75.81    1.56 
  -1   1  -4   66.13    1.99 
  -1   1  -4   64.00    1.90 
  -1   1  -4   66.09    1.85 
  -1   1  -5  127.54    3.04 
  -1   1  -5  131.63    2.56 
  -1   1  -5  144.88    2.76 
  -1   1  -5  130.40    2.58 
  -1   1  -5  111.68    2.35 
  -1   1  -5  112.06    2.33 
  -1   1  -5  123.35    2.39 
  -1   1  -5  129.49    2.94 
  -1   1  -5  138.72    3.24 
  -1   1  -5  121.64    2.43 
  -1   1  -5   92.49    2.46 
  -1   1  -5   96.14    2.53 
  -1   1  -5  114.40    2.41 
  -1   1  -5  125.79    2.44 
  -1   1  -5  124.44    2.43 
  -1   1  -5  123.63    2.92 
  -1   1  -5  129.67    2.94 
  -1   1  -6   40.93    1.73 
  -1   1  -6   46.04    1.46 
  -1   1  -6   38.20    1.37 
  -1   1  -6   36.67    1.35 
  -1   1  -6   48.12    1.51 
  -1   1  -6   37.58    1.16 
  -1   1  -6   36.87    1.15 
  -1   1  -6   40.50    1.22 
  -1   1  -6   40.05    1.20 
  -1   1  -6   43.16    1.65 
  -1   1  -6   42.06    1.83 
  -1   1  -6   35.46    1.27 
  -1   1  -6   47.97    1.49 
  -1   1  -6   30.91    1.38 
  -1   1  -6   37.48    1.21 
  -1   1  -6   29.39    1.30 
  -1   1  -6   44.41    1.29 
  -1   1  -6   37.73    1.63 
  -1   1  -6   43.07    1.65 
  -1   1  -7   41.06    1.96 
  -1   1  -7   53.99    1.75 
  -1   1  -7   53.30    1.80 
  -1   1  -7   45.95    1.58 
  -1   1  -7   42.23    1.36 
  -1   1  -7   40.42    1.36 
  -1   1  -7   47.25    1.42 
  -1   1  -7   47.16    1.44 
  -1   1  -7   43.88    2.06 
  -1   1  -7   49.52    1.99 
  -1   1  -7   54.44    1.81 
  -1   1  -7   40.62    1.64 
  -1   1  -7   41.91    1.42 
  -1   1  -7   38.80    1.56 
  -1   1  -7   41.61    1.56 
  -1   1  -7   52.63    2.06 
  -1   1  -7   38.03    1.84 
  -1   1  -8   21.67    1.40 
  -1   1  -8   21.48    1.38 
  -1   1  -8   19.59    1.10 
  -1   1  -8   23.05    1.20 
  -1   1  -8   23.18    1.17 
  -1   1  -8   24.61    1.63 
  -1   1  -8   22.41    1.71 
  -1   1  -8   29.11    1.55 
  -1   1  -8   19.38    1.11 
  -1   1  -8   19.37    1.10 
  -1   1  -8   21.95    1.35 
  -1   1  -8   16.02    1.38 
  -1   1  -8   22.73    1.58 
  -1   1  -8   16.76    1.52 
  -1   1  -9    2.93    0.99 
  -1   1  -9    4.79    0.96 
  -1   1  -9    5.17    1.00 
  -1   1  -9    5.21    1.08 
  -1   1  -9    3.61    1.11 
  -1   1  -9    3.61    1.08 
  -1   1  -9    3.36    1.12 
  -1   1  -9    3.72    0.86 
  -1   1  -9    2.72    0.82 
  -1   1  -9    4.01    1.15 
  -1   1  -9    3.77    1.09 
  -1   1  -9    2.83    1.15 
  -1   1 -10   23.74    1.30 
  -1   1 -10   25.95    1.38 
  -1   1 -10   13.93    1.49 
  -1   1 -10   18.45    1.67 
  -1   1 -10   34.44    1.93 
  -1   1 -11   -0.17    1.13 
  -1   1 -11   -0.06    0.86 
  -1   1 -11   -0.91    0.94 
  -1   1 -12    0.41    0.96 
  -1   1 -12   -1.04    1.77 
  -1   0  12    0.62    0.43 
  -1   0  12    0.07    0.35 
  -1   0  11    2.81    0.60 
  -1   0  11    1.92    0.44 
  -1   0  11    1.75    0.42 
  -1   0  11    1.18    0.35 
  -1   0  11    2.79    0.47 
  -1   0  10    1.37    0.50 
  -1   0  10    1.87    0.51 
  -1   0  10    1.76    0.63 
  -1   0  10    2.05    0.53 
  -1   0   9    6.50    0.57 
  -1   0   9    4.19    0.51 
  -1   0   9    4.07    0.48 
  -1   0   9    7.02    0.56 
  -1   0   9    4.21    0.74 
  -1   0   9    4.98    0.73 
  -1   0   9    5.55    0.76 
  -1   0   9    7.42    0.78 
  -1   0   9    6.21    0.66 
  -1   0   9    4.65    0.91 
  -1   0   8    2.80    1.03 
  -1   0   8    1.91    0.76 
  -1   0   8    3.19    0.54 
  -1   0   8    2.80    0.66 
  -1   0   8    2.34    0.49 
  -1   0   8    1.97    0.43 
  -1   0   8    2.29    0.40 
  -1   0   8    3.42    0.44 
  -1   0   8    1.89    0.58 
  -1   0   8    1.94    0.59 
  -1   0   8    2.96    0.78 
  -1   0   8    2.81    0.60 
  -1   0   8    2.98    0.62 
  -1   0   8    2.80    0.43 
  -1   0   7   65.60    1.82 
  -1   0   7   56.99    1.90 
  -1   0   7   63.48    1.41 
  -1   0   7   63.12    1.43 
  -1   0   7   63.99    1.33 
  -1   0   7   58.97    1.33 
  -1   0   7   60.68    1.32 
  -1   0   7   67.33    1.33 
  -1   0   7   52.67    1.55 
  -1   0   7   53.91    1.57 
  -1   0   7   50.88    1.68 
  -1   0   7   60.87    1.99 
  -1   0   7   65.15    1.92 
  -1   0   7   61.44    1.69 
  -1   0   7   61.16    1.52 
  -1   0   6    2.05    0.36 
  -1   0   6    2.25    0.35 
  -1   0   6    2.48    0.37 
  -1   0   6    2.28    0.31 
  -1   0   6    2.33    0.29 
  -1   0   6    2.73    0.31 
  -1   0   6    1.72    0.43 
  -1   0   6    2.16    0.35 
  -1   0   6    1.70    0.33 
  -1   0   6    2.08    0.52 
  -1   0   6    1.90    0.55 
  -1   0   6    2.31    0.46 
  -1   0   5   14.19    0.53 
  -1   0   5   13.75    0.54 
  -1   0   5   12.70    0.49 
  -1   0   5   14.35    0.71 
  -1   0   5   11.99    0.78 
  -1   0   5   14.14    0.45 
  -1   0   5   14.30    0.44 
  -1   0   5   12.35    0.69 
  -1   0   5   12.34    0.58 
  -1   0   5   12.12    0.57 
  -1   0   5   12.16    0.74 
  -1   0   5   14.19    0.69 
  -1   0   4   94.62    1.91 
  -1   0   4   86.65    1.56 
  -1   0   4   97.00    1.60 
  -1   0   4   93.12    1.88 
  -1   0   4   92.46    1.96 
  -1   0   4  101.51    2.07 
  -1   0   4   94.25    1.90 
  -1   0   4   82.81    1.77 
  -1   0   4   82.61    1.76 
  -1   0   3   77.04    1.49 
  -1   0   3   80.61    1.64 
  -1   0   3   75.61    1.55 
  -1   0   3   75.00    1.51 
  -1   0   3   69.17    1.40 
  -1   0   3   69.80    1.39 
  -1   0   2  304.89    5.29 
  -1   0   2  299.94    5.28 
  -1   0   1  518.99    8.17 
  -1   0   0   46.57    0.83 
  -1   0  -1  125.09    1.97 
  -1   0  -1  128.31    1.99 
  -1   0  -2  498.25    7.41 
  -1   0  -2  517.91    7.44 
  -1   0  -2  492.96    7.38 
  -1   0  -3   12.24    0.51 
  -1   0  -3   11.25    0.58 
  -1   0  -3   11.00    0.55 
  -1   0  -3   11.30    0.70 
  -1   0  -3   12.14    0.65 
  -1   0  -3   12.83    0.57 
  -1   0  -3   12.91    0.68 
  -1   0  -3   13.32    0.70 
  -1   0  -3   11.37    0.64 
  -1   0  -3    9.51    0.46 
  -1   0  -4   10.84    0.61 
  -1   0  -4    8.93    0.61 
  -1   0  -4   11.75    0.72 
  -1   0  -4    9.36    0.53 
  -1   0  -4   12.44    0.80 
  -1   0  -4   12.02    0.72 
  -1   0  -4   10.82    0.54 
  -1   0  -4   10.51    0.72 
  -1   0  -4   10.27    0.72 
  -1   0  -4   13.11    0.64 
  -1   0  -5   24.53    0.97 
  -1   0  -5   35.89    1.12 
  -1   0  -5   30.43    1.03 
  -1   0  -5   28.07    1.21 
  -1   0  -5   27.78    1.20 
  -1   0  -5   25.66    1.09 
  -1   0  -5   30.39    1.11 
  -1   0  -5   33.94    1.27 
  -1   0  -5   31.47    1.35 
  -1   0  -5   28.85    0.86 
  -1   0  -5   28.24    0.84 
  -1   0  -5   33.39    1.27 
  -1   0  -5   26.90    0.98 
  -1   0  -5   31.68    0.95 
  -1   0  -6   45.89    1.64 
  -1   0  -6   67.41    1.74 
  -1   0  -6   50.92    1.75 
  -1   0  -6   57.45    1.93 
  -1   0  -6   62.19    1.87 
  -1   0  -6   38.59    1.62 
  -1   0  -6   57.62    6.16 
  -1   0  -6   45.41    1.62 
  -1   0  -6   53.70    1.33 
  -1   0  -6   53.58    1.32 
  -1   0  -6   58.59    1.83 
  -1   0  -6   51.23    1.37 
  -1   0  -7    4.76    0.82 
  -1   0  -7    4.08    0.79 
  -1   0  -7    3.72    0.84 
  -1   0  -7    1.26    0.67 
  -1   0  -7    4.35    0.81 
  -1   0  -7    3.38    0.52 
  -1   0  -7    3.56    0.55 
  -1   0  -7    4.62    0.70 
  -1   0  -7    4.43    0.86 
  -1   0  -7    3.30    0.80 
  -1   0  -7    3.51    0.83 
  -1   0  -7    3.72    0.62 
  -1   0  -8    0.12    0.90 
  -1   0  -8   -0.03    0.82 
  -1   0  -8    0.14    0.79 
  -1   0  -8   -0.41    0.89 
  -1   0  -8    0.14    0.60 
  -1   0  -8   -0.26    0.61 
  -1   0  -8   -0.10    0.69 
  -1   0  -8   -0.64    0.70 
  -1   0  -8    0.60    0.96 
  -1   0  -8    0.09    0.94 
  -1   0  -8   -0.03    0.89 
  -1   0  -9    8.19    1.27 
  -1   0  -9   14.78    1.22 
  -1   0  -9   14.10    1.24 
  -1   0  -9   11.41    1.40 
  -1   0  -9   14.75    1.46 
  -1   0  -9   17.18    1.48 
  -1   0  -9   11.52    0.97 
  -1   0  -9   12.07    0.96 
  -1   0  -9    8.23    1.13 
  -1   0  -9   15.18    1.46 
  -1   0  -9   13.83    1.40 
  -1   0  -9   14.04    1.36 
  -1   0  -9   11.55    1.01 
  -1   0 -10   -0.26    1.03 
  -1   0 -10   -0.33    1.00 
  -1   0 -10    1.12    0.99 
  -1   0 -10    0.10    1.07 
  -1   0 -10   -0.20    0.93 
  -1   0 -10   -0.14    0.81 
  -1   0 -10    1.02    1.04 
  -1   0 -10    0.98    1.03 
  -1   0 -10    0.77    0.89 
  -1   0 -10    1.10    0.95 
  -1   0 -11    2.20    0.87 
  -1   0 -11    1.61    0.92 
  -1   0 -12   -0.23    0.77 
  -1   0 -12   -0.53    0.83 
  -1  -1  12    0.12    0.56 
  -1  -1  12    0.87    0.42 
  -1  -1  11    1.65    0.51 
  -1  -1  11    0.99    0.37 
  -1  -1  11    0.67    0.34 
  -1  -1  11    0.05    0.36 
  -1  -1  11    1.20    0.36 
  -1  -1  11    1.03    0.36 
  -1  -1  11   -0.11    0.87 
  -1  -1  11    0.02    0.62 
  -1  -1  11    2.16    0.45 
  -1  -1  10    0.06    0.37 
  -1  -1  10   -0.09    0.40 
  -1  -1  10    0.01    0.56 
  -1  -1  10   -0.21    0.42 
  -1  -1  10   -0.24    0.43 
  -1  -1  10    0.35    0.42 
  -1  -1  10    0.29    0.42 
  -1  -1  10   -0.21    0.99 
  -1  -1  10   -0.03    0.73 
  -1  -1  10    0.08    0.49 
  -1  -1  10    0.30    0.51 
  -1  -1   9    8.73    0.96 
  -1  -1   9    8.44    0.59 
  -1  -1   9    8.68    0.56 
  -1  -1   9    3.05    1.16 
  -1  -1   9    0.29    0.89 
  -1  -1   9   11.26    0.65 
  -1  -1   9    8.13    0.83 
  -1  -1   9   11.78    0.92 
  -1  -1   9   10.22    0.89 
  -1  -1   9   13.76    0.89 
  -1  -1   9   12.63    0.77 
  -1  -1   9   11.67    0.84 
  -1  -1   8    0.15    0.56 
  -1  -1   8   -0.15    0.37 
  -1  -1   8    0.13    0.40 
  -1  -1   8   -0.50    1.01 
  -1  -1   8   -0.31    0.72 
  -1  -1   8   -0.16    0.47 
  -1  -1   8    0.25    0.44 
  -1  -1   8   -0.07    0.49 
  -1  -1   8   -0.01    0.53 
  -1  -1   8   -0.14    0.42 
  -1  -1   7   46.29    1.69 
  -1  -1   7   50.34    2.19 
  -1  -1   7   46.07    1.08 
  -1  -1   7   46.60    1.10 
  -1  -1   7   55.38    2.00 
  -1  -1   7   44.66    1.57 
  -1  -1   7   52.92    1.60 
  -1  -1   7   52.62    1.14 
  -1  -1   7   48.84    1.31 
  -1  -1   7   48.65    1.44 
  -1  -1   6   23.91    0.66 
  -1  -1   6   24.42    0.68 
  -1  -1   6   22.63    1.02 
  -1  -1   6   23.09    1.07 
  -1  -1   6   26.22    1.00 
  -1  -1   5   34.65    1.10 
  -1  -1   5   27.94    0.79 
  -1  -1   5   28.00    0.79 
  -1  -1   5   33.21    0.74 
  -1  -1   5   34.14    0.76 
  -1  -1   5   30.81    1.08 
  -1  -1   5   35.43    1.06 
  -1  -1   5   41.02    1.21 
  -1  -1   5   38.79    1.48 
  -1  -1   5   30.31    1.14 
  -1  -1   4   43.81    1.17 
  -1  -1   4   52.50    1.56 
  -1  -1   4   46.27    1.10 
  -1  -1   4   41.59    1.19 
  -1  -1   4   53.45    1.21 
  -1  -1   4   50.97    1.20 
  -1  -1   4   37.86    0.88 
  -1  -1   4   38.11    0.89 
  -1  -1   3   14.08    0.52 
  -1  -1   3    9.94    0.31 
  -1  -1   3   14.80    0.54 
  -1  -1   3   10.41    0.32 
  -1  -1   3   14.29    0.50 
  -1  -1   3   11.60    0.73 
  -1  -1   3   12.99    0.51 
  -1  -1   3   11.80    0.52 
  -1  -1   3   12.35    0.43 
  -1  -1   3   13.44    0.49 
  -1  -1   2  566.33    9.44 
  -1  -1   2  585.14    9.30 
  -1  -1   2  570.40    9.35 
  -1  -1   2  575.14    9.30 
  -1  -1   1  137.68    2.29 
  -1  -1   1  136.15    2.25 
  -1  -1   1  139.70    2.30 
  -1  -1   0  786.15   11.14 
  -1  -1   0  759.41   11.13 
  -1  -1   0  696.68   11.06 
  -1  -1   0  655.95   11.01 
  -1  -1  -1    2.68    0.49 
  -1  -1  -1    1.86    0.33 
  -1  -1  -1    1.77    0.33 
  -1  -1  -2    9.98    0.82 
  -1  -1  -2   10.43    0.92 
  -1  -1  -2    8.26    0.53 
  -1  -1  -2   11.99    0.89 
  -1  -1  -2    9.91    0.84 
  -1  -1  -2    8.55    0.64 
  -1  -1  -2    8.47    0.61 
  -1  -1  -2    9.12    0.34 
  -1  -1  -2   10.21    0.42 
  -1  -1  -3   35.49    0.96 
  -1  -1  -3   38.17    1.13 
  -1  -1  -3   39.56    1.16 
  -1  -1  -3   39.06    0.93 
  -1  -1  -3   45.86    1.25 
  -1  -1  -3   47.16    1.30 
  -1  -1  -3   40.15    0.89 
  -1  -1  -4  131.06    2.43 
  -1  -1  -4  148.87    2.57 
  -1  -1  -4  132.11    2.41 
  -1  -1  -4  130.45    2.82 
  -1  -1  -4  125.97    2.78 
  -1  -1  -4  119.18    2.67 
  -1  -1  -4  117.38    2.70 
  -1  -1  -4  116.52    2.48 
  -1  -1  -4  141.94    2.72 
  -1  -1  -4  139.14    2.71 
  -1  -1  -4  123.16    2.43 
  -1  -1  -4  120.58    2.45 
  -1  -1  -5   82.16    1.64 
  -1  -1  -5   80.40    1.62 
  -1  -1  -5   78.97    2.20 
  -1  -1  -5   89.44    1.87 
  -1  -1  -5   90.06    1.95 
  -1  -1  -5   75.37    2.16 
  -1  -1  -5   70.38    2.09 
  -1  -1  -5   77.25    1.92 
  -1  -1  -5   71.53    2.10 
  -1  -1  -5   89.55    2.14 
  -1  -1  -5   87.09    2.12 
  -1  -1  -5   86.39    1.75 
  -1  -1  -5   91.15    2.16 
  -1  -1  -5   77.63    1.81 
  -1  -1  -5   75.01    1.81 
  -1  -1  -6    2.70    0.42 
  -1  -1  -6    3.13    0.43 
  -1  -1  -6    3.23    0.54 
  -1  -1  -6    3.22    0.86 
  -1  -1  -6    3.73    0.56 
  -1  -1  -6    2.61    0.85 
  -1  -1  -6    1.82    0.69 
  -1  -1  -6    2.36    0.65 
  -1  -1  -6    3.60    0.69 
  -1  -1  -6    3.34    0.70 
  -1  -1  -6    2.86    0.65 
  -1  -1  -6    3.97    0.51 
  -1  -1  -6    2.51    0.47 
  -1  -1  -6    2.87    0.49 
  -1  -1  -7   34.89    1.33 
  -1  -1  -7   23.37    1.62 
  -1  -1  -7   33.64    1.36 
  -1  -1  -7   23.55    1.54 
  -1  -1  -7   27.27    1.38 
  -1  -1  -7   20.63    1.52 
  -1  -1  -7   14.58    1.49 
  -1  -1  -7   28.65    1.50 
  -1  -1  -7   34.80    1.54 
  -1  -1  -7   32.44    1.12 
  -1  -1  -7   34.74    1.54 
  -1  -1  -7   27.91    1.19 
  -1  -1  -7   30.72    1.02 
  -1  -1  -7   29.52    1.00 
  -1  -1  -8    2.77    1.51 
  -1  -1  -8    3.20    1.49 
  -1  -1  -8    7.33    0.90 
  -1  -1  -8    6.02    1.04 
  -1  -1  -8    4.33    1.00 
  -1  -1  -8    6.40    1.01 
  -1  -1  -8    6.43    0.99 
  -1  -1  -8    4.23    0.97 
  -1  -1  -8    6.87    0.79 
  -1  -1  -8    7.32    0.74 
  -1  -1  -8    6.82    0.70 
  -1  -1  -8    3.28    0.91 
  -1  -1  -9   12.97    0.94 
  -1  -1  -9   14.70    0.95 
  -1  -1  -9   16.26    1.24 
  -1  -1  -9   16.07    1.53 
  -1  -1  -9   16.41    1.48 
  -1  -1  -9   11.90    1.34 
  -1  -1  -9   10.53    1.32 
  -1  -1  -9   10.67    1.32 
  -1  -1  -9   14.15    1.03 
  -1  -1  -9   16.50    1.47 
  -1  -1  -9    5.87    1.14 
  -1  -1 -10   11.26    1.35 
  -1  -1 -10    8.83    1.27 
  -1  -1 -10   11.93    1.40 
  -1  -1 -10   10.44    0.98 
  -1  -1 -10   10.44    1.01 
  -1  -1 -10    4.80    1.25 
  -1  -1 -10    4.85    1.21 
  -1  -1 -10   10.18    1.03 
  -1  -1 -11    2.13    2.48 
  -1  -1 -11    5.49    0.93 
  -1  -2  12   -0.06    0.49 
  -1  -2  12    0.05    0.32 
  -1  -2  11    0.82    0.31 
  -1  -2  11    2.06    0.32 
  -1  -2  11    1.60    0.35 
  -1  -2  11    1.71    0.38 
  -1  -2  11   -0.23    0.75 
  -1  -2  11   -0.07    0.56 
  -1  -2  11    3.08    0.44 
  -1  -2  11    2.70    0.47 
  -1  -2  10    3.77    0.56 
  -1  -2  10    4.38    0.59 
  -1  -2  10    2.46    0.49 
  -1  -2  10    2.29    0.53 
  -1  -2  10    2.49    0.48 
  -1  -2  10    1.41    0.42 
  -1  -2  10    3.40    0.43 
  -1  -2  10    3.08    0.44 
  -1  -2  10    2.64    0.46 
  -1  -2  10    0.57    0.96 
  -1  -2  10    0.29    0.72 
  -1  -2  10    2.08    0.62 
  -1  -2   9    7.08    0.69 
  -1  -2   9    6.65    0.64 
  -1  -2   9    4.26    0.67 
  -1  -2   9    3.99    0.50 
  -1  -2   9    4.56    0.49 
  -1  -2   9    2.77    0.48 
  -1  -2   9    4.90    0.49 
  -1  -2   9    4.90    0.81 
  -1  -2   9   -0.11    1.05 
  -1  -2   9    0.15    0.80 
  -1  -2   8   28.56    1.43 
  -1  -2   8   27.18    1.12 
  -1  -2   8   24.69    1.40 
  -1  -2   8   25.20    0.88 
  -1  -2   8   24.78    0.84 
  -1  -2   8   15.02    0.85 
  -1  -2   8   21.89    1.26 
  -1  -2   8    6.12    1.26 
  -1  -2   8    1.39    1.11 
  -1  -2   8   32.60    1.16 
  -1  -2   8   33.47    1.10 
  -1  -2   7   16.10    0.64 
  -1  -2   7   15.08    0.60 
  -1  -2   7    7.00    0.61 
  -1  -2   7   12.35    0.92 
  -1  -2   7   17.10    0.97 
  -1  -2   7   15.57    0.91 
  -1  -2   7    8.68    1.18 
  -1  -2   7    6.08    0.90 
  -1  -2   7   16.13    0.76 
  -1  -2   7   14.79    0.80 
  -1  -2   7   12.92    1.01 
  -1  -2   6   29.69    0.77 
  -1  -2   6   27.15    0.60 
  -1  -2   6   30.29    0.80 
  -1  -2   6   35.19    1.24 
  -1  -2   6   38.81    1.29 
  -1  -2   6   30.07    1.19 
  -1  -2   6   29.73    1.26 
  -1  -2   6   35.78    1.12 
  -1  -2   5   53.21    1.55 
  -1  -2   5   58.75    1.37 
  -1  -2   5   45.34    0.91 
  -1  -2   5   47.59    1.05 
  -1  -2   5   51.69    1.07 
  -1  -2   5   67.97    1.62 
  -1  -2   5   65.75    1.55 
  -1  -2   5   49.78    1.48 
  -1  -2   5   66.88    1.50 
  -1  -2   4   71.44    1.58 
  -1  -2   4   73.18    1.50 
  -1  -2   4   53.04    1.08 
  -1  -2   4   50.91    0.97 
  -1  -2   4   62.56    1.32 
  -1  -2   4   56.63    1.49 
  -1  -2   4   47.96    1.07 
  -1  -2   4   57.67    1.47 
  -1  -2   4   76.84    1.50 
  -1  -2   3  262.38    4.95 
  -1  -2   3  264.01    4.69 
  -1  -2   3  262.75    4.58 
  -1  -2   3  327.39    4.90 
  -1  -2   3  342.46    5.04 
  -1  -2   3  255.41    4.90 
  -1  -2   3  338.45    4.94 
  -1  -2   2  168.64    2.91 
  -1  -2   2  168.91    2.94 
  -1  -2   2  159.38    2.89 
  -1  -2   2  144.42    2.88 
  -1  -2   2  175.25    2.98 
  -1  -2   2  145.86    2.93 
  -1  -2   2  165.52    2.85 
  -1  -2   2  178.64    3.00 
  -1  -2   1 8419.77  143.06 
  -1  -2   1 9999.00  143.11 
  -1  -2   1 8935.96  142.91 
  -1  -2   1 9050.43  143.20 
  -1  -2   1 9930.58  143.21 
  -1  -2   1 9269.28  143.12 
  -1  -2   0    1.88    0.42 
  -1  -2   0    1.05    0.46 
  -1  -2   0    0.98    0.17 
  -1  -2   0    1.04    0.41 
  -1  -2   0    0.90    0.46 
  -1  -2   0    0.82    0.19 
  -1  -2  -1    0.53    0.53 
  -1  -2  -1    0.22    0.51 
  -1  -2  -2  140.76    3.37 
  -1  -2  -2  136.63    3.37 
  -1  -2  -2  198.21    3.72 
  -1  -2  -2  204.21    3.30 
  -1  -2  -2  215.97    3.27 
  -1  -2  -2  199.34    3.31 
  -1  -2  -2  146.90    3.73 
  -1  -2  -2  199.84    3.32 
  -1  -2  -2  201.70    3.26 
  -1  -2  -3  341.40    6.20 
  -1  -2  -3  377.25    6.02 
  -1  -2  -3  338.39    6.20 
  -1  -2  -3  374.92    6.55 
  -1  -2  -3  321.61    6.04 
  -1  -2  -3  365.80    6.53 
  -1  -2  -3  388.59    6.14 
  -1  -2  -3  379.76    6.10 
  -1  -2  -4   46.24    1.79 
  -1  -2  -4   31.97    1.20 
  -1  -2  -4   31.71    1.19 
  -1  -2  -4   42.85    1.06 
  -1  -2  -4   39.98    1.50 
  -1  -2  -4   36.97    1.11 
  -1  -2  -4   37.84    1.48 
  -1  -2  -4   42.52    1.12 
  -1  -2  -4   44.42    1.05 
  -1  -2  -4   40.65    1.60 
  -1  -2  -4   40.95    1.54 
  -1  -2  -4   41.89    1.10 
  -1  -2  -4   42.24    0.92 
  -1  -2  -5  226.79    3.95 
  -1  -2  -5  225.65    3.82 
  -1  -2  -5  225.58    3.83 
  -1  -2  -5  246.85    4.95 
  -1  -2  -5  217.62    3.66 
  -1  -2  -5  200.41    4.08 
  -1  -2  -5  208.38    4.59 
  -1  -2  -5  175.52    4.42 
  -1  -2  -5  219.10    4.10 
  -1  -2  -5  206.82    4.61 
  -1  -2  -5  235.46    4.19 
  -1  -2  -5  248.56    4.12 
  -1  -2  -5  206.95    4.57 
  -1  -2  -5  231.56    4.09 
  -1  -2  -5  220.70    4.08 
  -1  -2  -6  162.68    2.97 
  -1  -2  -6  159.27    2.83 
  -1  -2  -6  156.53    2.80 
  -1  -2  -6  162.47    3.45 
  -1  -2  -6  148.43    3.97 
  -1  -2  -6  147.44    2.58 
  -1  -2  -6  135.66    3.63 
  -1  -2  -6  142.41    3.17 
  -1  -2  -6  112.53    3.45 
  -1  -2  -6  148.30    3.10 
  -1  -2  -6  179.71    3.25 
  -1  -2  -6  136.24    3.59 
  -1  -2  -6  167.05    3.24 
  -1  -2  -6  134.12    3.64 
  -1  -2  -6  107.98    3.08 
  -1  -2  -6  104.72    3.05 
  -1  -2  -6  164.51    3.20 
  -1  -2  -6  152.33    3.10 
  -1  -2  -6  161.40    3.46 
  -1  -2  -7    4.31    0.62 
  -1  -2  -7    3.95    0.56 
  -1  -2  -7    4.21    0.54 
  -1  -2  -7    3.96    0.86 
  -1  -2  -7    4.37    0.87 
  -1  -2  -7    3.83    0.79 
  -1  -2  -7    3.83    0.39 
  -1  -2  -7    3.11    0.74 
  -1  -2  -7    3.27    1.04 
  -1  -2  -7    3.94    0.61 
  -1  -2  -7    4.58    0.71 
  -1  -2  -7    3.82    0.67 
  -1  -2  -7    4.17    0.62 
  -1  -2  -7    3.81    0.60 
  -1  -2  -8   32.13    1.29 
  -1  -2  -8   31.25    1.25 
  -1  -2  -8   28.49    1.69 
  -1  -2  -8   34.24    1.80 
  -1  -2  -8   27.71    1.65 
  -1  -2  -8   29.58    2.35 
  -1  -2  -8   16.25    1.97 
  -1  -2  -8   33.26    1.21 
  -1  -2  -8   32.80    1.22 
  -1  -2  -8   33.93    1.34 
  -1  -2  -8   33.64    1.79 
  -1  -2  -8   36.74    1.69 
  -1  -2  -8   22.12    2.20 
  -1  -2  -8   22.81    2.30 
  -1  -2  -8   36.02    1.58 
  -1  -2  -9   11.28    1.33 
  -1  -2  -9    7.62    1.17 
  -1  -2  -9   12.61    0.96 
  -1  -2  -9   11.92    0.93 
  -1  -2  -9   11.49    1.03 
  -1  -2  -9   10.95    1.35 
  -1  -2  -9   11.60    1.21 
  -1  -2 -10   -0.23    0.83 
  -1  -2 -10    0.31    0.76 
  -1  -2 -10    0.27    0.77 
  -1  -2 -10    0.92    0.95 
  -1  -2 -10   -0.37    0.98 
  -1  -2 -11    0.64    0.84 
  -1  -3  12    0.58    0.17 
  -1  -3  11    0.50    0.31 
  -1  -3  11    0.63    0.34 
  -1  -3  11    0.01    0.65 
  -1  -3  11    0.16    0.48 
  -1  -3  11    1.55    0.37 
  -1  -3  11    0.04    0.25 
  -1  -3  11    0.64    0.24 
  -1  -3  10    0.08    0.33 
  -1  -3  10    0.39    0.32 
  -1  -3  10    1.06    0.43 
  -1  -3  10    0.37    0.31 
  -1  -3  10    0.33    0.45 
  -1  -3  10    0.14    0.31 
  -1  -3  10    0.60    0.36 
  -1  -3  10    0.10    0.37 
  -1  -3  10    0.52    0.39 
  -1  -3  10    0.92    0.87 
  -1  -3  10   -0.21    0.62 
  -1  -3  10    0.85    0.46 
  -1  -3  10    0.26    0.49 
  -1  -3   9   -0.13    0.97 
  -1  -3   9    0.53    0.50 
  -1  -3   9    0.17    0.50 
  -1  -3   9    0.30    0.47 
  -1  -3   9    0.51    0.39 
  -1  -3   9    0.30    0.38 
  -1  -3   8    0.23    1.01 
  -1  -3   8    0.24    0.80 
  -1  -3   8    1.88    0.56 
  -1  -3   8    1.30    0.50 
  -1  -3   8    0.60    0.57 
  -1  -3   8    0.64    0.40 
  -1  -3   8    1.11    0.40 
  -1  -3   8    0.85    0.51 
  -1  -3   7    4.57    1.39 
  -1  -3   7    3.81    0.69 
  -1  -3   7    4.86    0.30 
  -1  -3   7    4.48    0.26 
  -1  -3   7    1.69    0.41 
  -1  -3   7    6.12    0.46 
  -1  -3   7    7.70    0.75 
  -1  -3   7    6.28    0.64 
  -1  -3   7    5.69    0.78 
  -1  -3   6    8.16    0.77 
  -1  -3   6    1.91    0.38 
  -1  -3   6    8.23    0.44 
  -1  -3   6    7.38    0.47 
  -1  -3   6    9.48    0.49 
  -1  -3   6    9.61    0.47 
  -1  -3   6    8.07    0.35 
  -1  -3   6    7.73    0.47 
  -1  -3   6    8.38    0.30 
  -1  -3   6   12.31    0.81 
  -1  -3   6   10.64    0.72 
  -1  -3   6    1.98    0.62 
  -1  -3   6   10.35    0.72 
  -1  -3   5    2.46    0.32 
  -1  -3   5    3.72    0.47 
  -1  -3   5    3.56    0.54 
  -1  -3   5    0.77    0.32 
  -1  -3   5    2.42    0.33 
  -1  -3   5    2.50    0.34 
  -1  -3   5    3.49    0.32 
  -1  -3   5    3.85    0.35 
  -1  -3   5    2.63    0.23 
  -1  -3   5    2.97    0.20 
  -1  -3   5    2.71    0.35 
  -1  -3   5    3.00    0.34 
  -1  -3   5    2.65    0.57 
  -1  -3   5    3.56    0.53 
  -1  -3   5    3.81    0.53 
  -1  -3   4    6.77    0.46 
  -1  -3   4    7.24    0.59 
  -1  -3   4   11.31    0.73 
  -1  -3   4    9.01    0.59 
  -1  -3   4    9.18    0.42 
  -1  -3   4    8.89    0.40 
  -1  -3   4    7.03    0.30 
  -1  -3   4    7.15    0.27 
  -1  -3   4   10.71    0.69 
  -1  -3   4    6.71    0.62 
  -1  -3   4    7.26    0.44 
  -1  -3   3    0.11    0.25 
  -1  -3   3    0.02    0.45 
  -1  -3   3    0.00    0.14 
  -1  -3   3    0.75    0.46 
  -1  -3   3    0.28    0.38 
  -1  -3   3    0.08    0.43 
  -1  -3   3    0.05    0.43 
  -1  -3   3    0.13    0.36 
  -1  -3   3    0.28    0.38 
  -1  -3   3    0.07    0.25 
  -1  -3   3    0.05    0.34 
  -1  -3   2  167.35    3.20 
  -1  -3   2  197.55    3.19 
  -1  -3   2  192.66    3.12 
  -1  -3   2  173.07    3.04 
  -1  -3   2  193.10    3.10 
  -1  -3   2  198.17    3.20 
  -1  -3   2  173.45    3.23 
  -1  -3   2  191.59    2.93 
  -1  -3   2  119.01    2.64 
  -1  -3   2  140.14    2.95 
  -1  -3   2  124.62    2.74 
  -1  -3   2  140.89    2.88 
  -1  -3   1  107.68    2.11 
  -1  -3   1  125.73    2.26 
  -1  -3   1   89.40    1.94 
  -1  -3   1   87.06    1.44 
  -1  -3   1   97.63    2.11 
  -1  -3   1  112.15    2.04 
  -1  -3   1  103.25    2.31 
  -1  -3   1  104.16    1.78 
  -1  -3   1  108.25    1.87 
  -1  -3   1   81.94    1.63 
  -1  -3   1  114.20    1.98 
  -1  -3   1   62.72    1.44 
  -1  -3   0   29.56    1.12 
  -1  -3   0   15.74    0.63 
  -1  -3   0   26.46    1.06 
  -1  -3   0   17.80    0.89 
  -1  -3   0   26.90    1.02 
  -1  -3   0   16.62    0.51 
  -1  -3   0   23.41    1.10 
  -1  -3   0   21.70    0.64 
  -1  -3   0   19.29    0.62 
  -1  -3   0   17.07    0.80 
  -1  -3   0   21.35    0.94 
  -1  -3   0   24.56    1.09 
  -1  -3   0   21.12    0.62 
  -1  -3   0   27.83    1.21 
  -1  -3   0   18.23    1.09 
  -1  -3  -1    2.28    0.73 
  -1  -3  -1    2.48    0.74 
  -1  -3  -1   13.64    0.47 
  -1  -3  -1   18.99    0.92 
  -1  -3  -1   19.67    0.99 
  -1  -3  -1   15.98    0.53 
  -1  -3  -1   17.72    1.03 
  -1  -3  -1   12.25    0.49 
  -1  -3  -1   11.69    0.47 
  -1  -3  -1    7.32    0.98 
  -1  -3  -2   15.42    1.02 
  -1  -3  -2   14.47    0.94 
  -1  -3  -2   17.66    0.59 
  -1  -3  -2   17.22    0.59 
  -1  -3  -2   12.58    0.96 
  -1  -3  -2   15.38    0.61 
  -1  -3  -2   15.14    0.60 
  -1  -3  -3   23.50    1.60 
  -1  -3  -3   42.86    1.18 
  -1  -3  -3   42.35    0.82 
  -1  -3  -3   30.88    1.43 
  -1  -3  -3   27.98    1.34 
  -1  -3  -3   48.03    1.12 
  -1  -3  -3   42.58    1.05 
  -1  -3  -3   44.51    1.15 
  -1  -3  -3   32.63    1.54 
  -1  -3  -3   22.92    1.22 
  -1  -3  -3   24.82    1.22 
  -1  -3  -3   43.45    1.12 
  -1  -3  -3   43.41    1.19 
  -1  -3  -4   16.51    0.52 
  -1  -3  -4   12.44    1.41 
  -1  -3  -4   13.94    0.80 
  -1  -3  -4   13.64    0.45 
  -1  -3  -4   13.93    0.63 
  -1  -3  -4   10.46    0.60 
  -1  -3  -4   13.97    0.71 
  -1  -3  -4   10.48    1.12 
  -1  -3  -4   10.66    0.97 
  -1  -3  -4   13.43    0.62 
  -1  -3  -4   10.38    0.91 
  -1  -3  -4   14.34    0.69 
  -1  -3  -4   13.81    0.81 
  -1  -3  -5   99.50    1.92 
  -1  -3  -5  102.68    1.86 
  -1  -3  -5   99.89    1.94 
  -1  -3  -5   98.70    3.20 
  -1  -3  -5   99.51    1.78 
  -1  -3  -5  107.78    2.21 
  -1  -3  -5   96.78    2.23 
  -1  -3  -5   85.86    2.75 
  -1  -3  -5   66.32    2.52 
  -1  -3  -5  100.79    2.20 
  -1  -3  -5   73.38    2.35 
  -1  -3  -5   71.53    2.32 
  -1  -3  -5  100.23    2.24 
  -1  -3  -6    8.05    0.65 
  -1  -3  -6    8.07    0.56 
  -1  -3  -6    7.82    0.45 
  -1  -3  -6    8.18    0.57 
  -1  -3  -6   -0.13    1.93 
  -1  -3  -6    8.10    0.43 
  -1  -3  -6    8.34    0.71 
  -1  -3  -6   -0.60    1.24 
  -1  -3  -6    1.00    1.14 
  -1  -3  -6    6.16    0.64 
  -1  -3  -6    3.30    1.21 
  -1  -3  -6    4.54    1.14 
  -1  -3  -6    3.33    0.85 
  -1  -3  -6    3.96    0.91 
  -1  -3  -6    7.06    0.62 
  -1  -3  -6    7.87    0.69 
  -1  -3  -7   92.45    2.12 
  -1  -3  -7   82.39    1.87 
  -1  -3  -7   80.93    1.84 
  -1  -3  -7   64.43    3.64 
  -1  -3  -7   66.51    2.33 
  -1  -3  -7   74.63    1.54 
  -1  -3  -7   80.86    2.29 
  -1  -3  -7   37.87    2.55 
  -1  -3  -7   34.30    2.56 
  -1  -3  -7   92.71    2.39 
  -1  -3  -7   69.40    2.12 
  -1  -3  -7   48.76    2.83 
  -1  -3  -7   47.12    2.68 
  -1  -3  -7   76.07    2.22 
  -1  -3  -7   75.84    2.15 
  -1  -3  -8    0.57    0.70 
  -1  -3  -8    0.58    0.75 
  -1  -3  -8   -0.60    1.02 
  -1  -3  -8   -0.96    1.04 
  -1  -3  -8   -0.34    0.74 
  -1  -3  -8   18.38    2.24 
  -1  -3  -8   -0.33    0.81 
  -1  -3  -8   19.75    2.27 
  -1  -3  -8   -0.50    0.78 
  -1  -3  -8    0.54    0.77 
  -1  -3  -8    0.07    0.61 
  -1  -3  -8    0.19    0.62 
  -1  -3  -8    2.49    2.07 
  -1  -3  -8    0.77    0.65 
  -1  -3  -9   10.21    0.93 
  -1  -3  -9   11.27    0.93 
  -1  -3  -9   11.68    1.07 
  -1  -3  -9    7.02    1.06 
  -1  -3  -9    4.69    0.99 
  -1  -3  -9   11.56    1.36 
  -1  -3  -9   13.74    1.43 
  -1  -3 -10    8.68    1.06 
  -1  -3 -10    4.80    1.05 
  -1  -3 -10    2.96    0.95 
  -1  -3 -10    9.38    1.31 
  -1  -3 -10    9.52    1.34 
  -1  -3 -10    8.32    0.96 
  -1  -3 -10    8.71    0.93 
  -1  -3 -11    0.30    0.74 
  -1  -3 -11   -0.34    0.76 
  -1  -3 -11    0.18    0.80 
  -1  -3 -11    0.25    0.86 
  -1  -3 -11    0.30    0.82 
  -1  -4  11    0.35    0.28 
  -1  -4  11   -0.13    0.25 
  -1  -4  10    0.38    0.41 
  -1  -4  10   -0.30    0.73 
  -1  -4  10    0.02    0.51 
  -1  -4  10    0.17    0.40 
  -1  -4   9   -0.25    0.32 
  -1  -4   9    0.04    0.49 
  -1  -4   9   -0.78    0.58 
  -1  -4   9    0.45    0.38 
  -1  -4   9   -0.20    0.39 
  -1  -4   9    0.47    0.41 
  -1  -4   9    0.37    0.88 
  -1  -4   9    0.05    0.63 
  -1  -4   8    3.58    0.51 
  -1  -4   8    3.70    0.50 
  -1  -4   8    2.15    0.47 
  -1  -4   8    2.40    0.25 
  -1  -4   8    3.11    0.54 
  -1  -4   8    2.09    0.21 
  -1  -4   8   -0.54    1.02 
  -1  -4   8   -0.01    0.77 
  -1  -4   8   -0.03    0.35 
  -1  -4   8    2.40    0.38 
  -1  -4   8    3.15    0.68 
  -1  -4   8    3.94    0.59 
  -1  -4   7    0.19    0.36 
  -1  -4   7    1.02    0.36 
  -1  -4   7    2.00    0.52 
  -1  -4   7    1.16    0.40 
  -1  -4   7    1.24    0.42 
  -1  -4   7    1.30    0.24 
  -1  -4   7    1.09    0.20 
  -1  -4   7    1.24    0.40 
  -1  -4   7    1.64    0.59 
  -1  -4   6    0.39    0.50 
  -1  -4   6    0.54    0.64 
  -1  -4   6    0.39    0.49 
  -1  -4   6    0.23    0.45 
  -1  -4   6    0.53    0.34 
  -1  -4   6    0.66    0.35 
  -1  -4   6    0.28    0.21 
  -1  -4   6    0.42    0.18 
  -1  -4   6   -0.42    0.76 
  -1  -4   6    0.58    0.36 
  -1  -4   6    0.43    0.45 
  -1  -4   5    0.98    0.50 
  -1  -4   5    0.21    0.42 
  -1  -4   5    0.29    0.35 
  -1  -4   5    0.32    0.21 
  -1  -4   5    0.30    0.19 
  -1  -4   5    0.45    0.29 
  -1  -4   5    0.14    0.32 
  -1  -4   5    0.32    0.17 
  -1  -4   5    0.12    0.45 
  -1  -4   5    0.52    0.31 
  -1  -4   5    0.41    0.41 
  -1  -4   5    0.42    0.46 
  -1  -4   5    0.32    0.63 
  -1  -4   4   11.41    0.78 
  -1  -4   4    4.21    0.45 
  -1  -4   4   12.95    0.42 
  -1  -4   4   11.08    0.36 
  -1  -4   4   11.55    0.35 
  -1  -4   4   11.89    0.41 
  -1  -4   4   13.81    0.51 
  -1  -4   4   14.04    0.50 
  -1  -4   4   11.47    0.36 
  -1  -4   4   18.30    0.93 
  -1  -4   4   18.59    0.92 
  -1  -4   4   14.91    0.74 
  -1  -4   4   11.84    0.62 
  -1  -4   4   12.82    0.75 
  -1  -4   4   15.68    0.83 
  -1  -4   4   14.38    0.75 
  -1  -4   4   16.94    0.86 
  -1  -4   4   18.09    0.88 
  -1  -4   3    2.31    0.52 
  -1  -4   3    1.90    0.26 
  -1  -4   3    2.86    0.22 
  -1  -4   3    3.41    0.35 
  -1  -4   3    2.96    0.22 
  -1  -4   3    0.53    0.38 
  -1  -4   3    3.64    0.33 
  -1  -4   3    3.80    0.62 
  -1  -4   3    4.38    0.69 
  -1  -4   3    3.67    0.48 
  -1  -4   3    4.29    0.65 
  -1  -4   3    4.10    0.64 
  -1  -4   3    4.35    0.63 
  -1  -4   3    4.74    0.60 
  -1  -4   3    3.64    0.58 
  -1  -4   3    3.00    0.39 
  -1  -4   3    3.40    0.50 
  -1  -4   2    0.11    0.38 
  -1  -4   2    0.19    0.58 
  -1  -4   2    0.58    0.51 
  -1  -4   2    0.41    0.51 
  -1  -4   2    0.24    0.62 
  -1  -4   2    0.19    0.17 
  -1  -4   2    0.07    0.17 
  -1  -4   2    0.04    0.18 
  -1  -4   2    0.16    0.15 
  -1  -4   2    0.37    0.63 
  -1  -4   2    0.44    0.58 
  -1  -4   2    0.09    0.53 
  -1  -4   2    0.27    0.59 
  -1  -4   2    0.07    0.24 
  -1  -4   2   -0.06    0.41 
  -1  -4   2    0.10    0.29 
  -1  -4   2    0.15    0.38 
  -1  -4   2   -0.04    0.25 
  -1  -4   1   78.75    1.97 
  -1  -4   1  105.47    2.31 
  -1  -4   1   95.09    2.13 
  -1  -4   1   72.66    1.30 
  -1  -4   1   76.05    1.31 
  -1  -4   1   74.01    1.35 
  -1  -4   1   75.81    1.30 
  -1  -4   1   58.50    1.34 
  -1  -4   1   92.17    2.02 
  -1  -4   1   77.25    1.70 
  -1  -4   1  103.50    2.38 
  -1  -4   1   79.70    2.06 
  -1  -4   1   71.62    1.57 
  -1  -4   1   94.34    1.90 
  -1  -4   1   68.58    1.59 
  -1  -4   0   33.61    1.38 
  -1  -4   0   27.10    1.02 
  -1  -4   0   49.40    1.64 
  -1  -4   0   45.96    1.58 
  -1  -4   0   39.83    0.78 
  -1  -4   0   38.04    1.04 
  -1  -4   0   50.00    1.34 
  -1  -4   0   34.69    1.02 
  -1  -4   0   32.60    1.24 
  -1  -4   0   47.79    1.64 
  -1  -4   0   37.48    1.39 
  -1  -4   0   51.62    1.55 
  -1  -4   0   30.44    0.86 
  -1  -4   0   48.91    1.60 
  -1  -4   0   41.71    0.74 
  -1  -4   0   37.92    1.03 
  -1  -4   0   52.38    1.77 
  -1  -4   0   43.22    1.60 
  -1  -4  -1   10.90    0.55 
  -1  -4  -1    9.28    0.55 
  -1  -4  -1   11.27    1.05 
  -1  -4  -1   10.68    1.02 
  -1  -4  -1   11.20    0.98 
  -1  -4  -1    8.47    0.46 
  -1  -4  -1    6.98    1.00 
  -1  -4  -1    9.07    0.36 
  -1  -4  -1   10.64    0.33 
  -1  -4  -1    9.76    0.31 
  -1  -4  -1   11.08    0.32 
  -1  -4  -1   28.80    1.53 
  -1  -4  -1   25.20    1.40 
  -1  -4  -1    9.45    0.54 
  -1  -4  -2    4.54    0.50 
  -1  -4  -2    7.12    0.37 
  -1  -4  -2    5.11    0.50 
  -1  -4  -2    7.59    0.29 
  -1  -4  -2    6.64    0.27 
  -1  -4  -2    6.48    0.26 
  -1  -4  -2    2.91    0.98 
  -1  -4  -2    6.76    1.04 
  -1  -4  -2    6.77    0.49 
  -1  -4  -2    8.96    1.01 
  -1  -4  -2    8.00    0.90 
  -1  -4  -2    5.92    0.47 
  -1  -4  -2   16.98    1.38 
  -1  -4  -2   14.40    1.28 
  -1  -4  -3    0.98    0.43 
  -1  -4  -3    0.73    0.19 
  -1  -4  -3    0.84    0.21 
  -1  -4  -3    0.95    0.37 
  -1  -4  -3    2.05    0.83 
  -1  -4  -3    2.06    0.80 
  -1  -4  -3    0.69    0.37 
  -1  -4  -3    0.73    0.34 
  -1  -4  -3    0.39    0.84 
  -1  -4  -3    0.98    0.28 
  -1  -4  -3    0.91    0.37 
  -1  -4  -3    0.83    0.42 
  -1  -4  -4    1.55    0.48 
  -1  -4  -4    1.53    0.49 
  -1  -4  -4    0.61    1.44 
  -1  -4  -4    1.54    0.23 
  -1  -4  -4    1.54    0.28 
  -1  -4  -4    1.06    0.18 
  -1  -4  -4    0.27    0.79 
  -1  -4  -4    0.97    0.38 
  -1  -4  -4    0.67    0.75 
  -1  -4  -4    1.94    0.44 
  -1  -4  -4    1.11    0.39 
  -1  -4  -4    1.53    0.37 
  -1  -4  -4    0.60    1.02 
  -1  -4  -4    1.89    0.43 
  -1  -4  -4    1.38    0.30 
  -1  -4  -5   77.73    1.84 
  -1  -4  -5   81.43    1.66 
  -1  -4  -5   78.91    2.24 
  -1  -4  -5   80.67    1.56 
  -1  -4  -5   74.02    2.03 
  -1  -4  -5   76.51    2.08 
  -1  -4  -5   77.72    2.01 
  -1  -4  -5   80.00    2.25 
  -1  -4  -5   78.98    2.07 
  -1  -4  -6    0.77    0.52 
  -1  -4  -6    0.52    0.49 
  -1  -4  -6    0.01    0.37 
  -1  -4  -6    0.46    0.70 
  -1  -4  -6    0.62    0.71 
  -1  -4  -6    0.61    0.37 
  -1  -4  -6    0.39    0.54 
  -1  -4  -6    0.46    0.53 
  -1  -4  -6   -1.04    1.43 
  -1  -4  -6    0.40    0.45 
  -1  -4  -6    0.38    0.54 
  -1  -4  -7   20.59    1.05 
  -1  -4  -7   19.55    1.01 
  -1  -4  -7   18.55    0.78 
  -1  -4  -7   22.53    1.32 
  -1  -4  -7   21.31    2.08 
  -1  -4  -7   22.51    2.04 
  -1  -4  -7   17.38    1.19 
  -1  -4  -7   23.92    2.46 
  -1  -4  -7   18.21    1.18 
  -1  -4  -7   15.55    1.14 
  -1  -4  -8   -0.33    0.67 
  -1  -4  -8    0.02    0.80 
  -1  -4  -8   -0.40    0.70 
  -1  -4  -8   -0.12    0.67 
  -1  -4  -8    1.35    0.79 
  -1  -4  -8    0.71    0.72 
  -1  -4  -8    0.17    0.81 
  -1  -4  -8   -0.34    0.48 
  -1  -4  -8   -0.44    0.64 
  -1  -4  -9    6.39    0.99 
  -1  -4  -9    7.88    0.94 
  -1  -4  -9    6.91    0.89 
  -1  -4 -10    0.61    0.84 
  -1  -4 -10   -0.34    0.80 
  -1  -4 -10   -0.54    0.83 
  -1  -4 -10    1.22    0.74 
  -1  -4 -10    1.59    0.79 
  -1  -4 -11    5.98    0.93 
  -1  -5  11   -0.01    0.16 
  -1  -5  10    0.12    0.28 
  -1  -5  10    0.10    0.31 
  -1  -5   9    2.62    0.41 
  -1  -5   9    2.61    0.44 
  -1  -5   8   -0.10    0.19 
  -1  -5   8    0.81    0.38 
  -1  -5   8   -0.02    0.20 
  -1  -5   8    0.66    0.40 
  -1  -5   8    0.29    0.37 
  -1  -5   8   -0.29    0.92 
  -1  -5   8    0.08    0.67 
  -1  -5   8   -0.05    0.46 
  -1  -5   7    0.05    0.22 
  -1  -5   7    0.26    0.40 
  -1  -5   7    0.29    0.43 
  -1  -5   7    0.13    0.19 
  -1  -5   7    0.35    0.40 
  -1  -5   7    0.52    0.50 
  -1  -5   7    0.12    0.54 
  -1  -5   6    0.08    0.80 
  -1  -5   6    0.26    0.52 
  -1  -5   6   -0.08    0.25 
  -1  -5   6   -0.15    0.40 
  -1  -5   6   -0.38    0.42 
  -1  -5   6   -0.08    0.23 
  -1  -5   6    0.11    0.19 
  -1  -5   6   -0.54    0.47 
  -1  -5   6    0.14    0.49 
  -1  -5   6   -0.03    0.29 
  -1  -5   6   -0.07    0.50 
  -1  -5   6   -0.04    0.81 
  -1  -5   6   -0.26    0.45 
  -1  -5   5    0.72    0.54 
  -1  -5   5    1.23    0.27 
  -1  -5   5    1.28    0.40 
  -1  -5   5    0.78    0.42 
  -1  -5   5    0.97    0.25 
  -1  -5   5    1.48    0.22 
  -1  -5   5    1.88    0.55 
  -1  -5   5    1.61    0.52 
  -1  -5   5    1.90    0.54 
  -1  -5   5    1.01    0.37 
  -1  -5   5    1.53    0.54 
  -1  -5   5    2.26    0.61 
  -1  -5   4    5.40    0.67 
  -1  -5   4    4.21    0.62 
  -1  -5   4    3.82    0.55 
  -1  -5   4    3.93    0.31 
  -1  -5   4    3.17    0.26 
  -1  -5   4    3.28    0.25 
  -1  -5   4    3.96    0.44 
  -1  -5   4    4.43    0.42 
  -1  -5   4    2.38    0.57 
  -1  -5   4    4.64    0.62 
  -1  -5   4    5.46    0.67 
  -1  -5   4    3.55    0.46 
  -1  -5   4    3.87    0.59 
  -1  -5   4    5.08    0.67 
  -1  -5   3   24.48    0.63 
  -1  -5   3   28.58    1.18 
  -1  -5   3   20.49    0.60 
  -1  -5   3   24.35    0.58 
  -1  -5   3   23.66    0.57 
  -1  -5   3   24.15    0.76 
  -1  -5   3   24.22    0.74 
  -1  -5   3   20.72    0.55 
  -1  -5   3   18.82    0.85 
  -1  -5   3   30.31    1.22 
  -1  -5   3   33.74    1.32 
  -1  -5   3   28.15    1.21 
  -1  -5   3   23.86    1.09 
  -1  -5   3   24.12    0.92 
  -1  -5   3   30.64    1.22 
  -1  -5   3   28.78    1.17 
  -1  -5   3   28.57    1.15 
  -1  -5   2    5.23    0.33 
  -1  -5   2    5.81    0.77 
  -1  -5   2    7.76    0.84 
  -1  -5   2    6.63    0.30 
  -1  -5   2    6.31    0.28 
  -1  -5   2    6.02    0.31 
  -1  -5   2    6.23    0.27 
  -1  -5   2    5.15    0.43 
  -1  -5   2    7.13    0.80 
  -1  -5   2    6.99    0.73 
  -1  -5   2    7.21    0.75 
  -1  -5   2    5.76    0.49 
  -1  -5   2    6.09    0.64 
  -1  -5   2    4.82    0.43 
  -1  -5   2    7.18    0.76 
  -1  -5   2    6.83    0.72 
  -1  -5   2    6.96    0.71 
  -1  -5   1    9.06    0.75 
  -1  -5   1    6.80    0.51 
  -1  -5   1    7.62    0.76 
  -1  -5   1    7.80    1.00 
  -1  -5   1    8.95    0.86 
  -1  -5   1    9.29    0.56 
  -1  -5   1    8.02    0.39 
  -1  -5   1    9.30    0.36 
  -1  -5   1   10.37    0.35 
  -1  -5   1    9.83    0.34 
  -1  -5   1    6.67    0.33 
  -1  -5   1    8.81    0.36 
  -1  -5   1    8.48    0.31 
  -1  -5   1    8.63    0.89 
  -1  -5   1   10.53    1.04 
  -1  -5   1    9.39    0.84 
  -1  -5   0   38.58    1.17 
  -1  -5   0   34.53    1.13 
  -1  -5   0   31.12    1.28 
  -1  -5   0   37.47    1.48 
  -1  -5   0   44.97    1.72 
  -1  -5   0   29.25    0.89 
  -1  -5   0   36.76    1.14 
  -1  -5   0   36.86    0.88 
  -1  -5   0   39.20    0.82 
  -1  -5   0   33.29    0.79 
  -1  -5   0   41.80    0.85 
  -1  -5   0   40.47    0.77 
  -1  -5   0   47.42    1.89 
  -1  -5   0   38.56    1.53 
  -1  -5   0   30.51    1.37 
  -1  -5   0   43.31    1.69 
  -1  -5   0   41.77    1.65 
  -1  -5  -1    0.24    0.29 
  -1  -5  -1    0.10    0.31 
  -1  -5  -1    8.22    1.33 
  -1  -5  -1   -0.19    0.69 
  -1  -5  -1    6.63    1.22 
  -1  -5  -1   -0.05    0.23 
  -1  -5  -1    0.25    0.19 
  -1  -5  -1    0.13    0.22 
  -1  -5  -1    0.38    0.18 
  -1  -5  -1    0.47    0.19 
  -1  -5  -1    0.22    0.17 
  -1  -5  -1    0.43    0.63 
  -1  -5  -1    0.33    0.67 
  -1  -5  -1    0.32    0.28 
  -1  -5  -1   -0.26    0.53 
  -1  -5  -1    0.44    0.73 
  -1  -5  -1    0.40    0.74 
  -1  -5  -1   -0.26    0.70 
  -1  -5  -1    0.05    0.28 
  -1  -5  -1   -1.25    1.10 
  -1  -5  -1    0.11    0.34 
  -1  -5  -1    0.25    0.32 
  -1  -5  -2    2.09    0.41 
  -1  -5  -2    3.05    0.27 
  -1  -5  -2    3.26    0.25 
  -1  -5  -2    2.87    0.23 
  -1  -5  -2    3.07    0.29 
  -1  -5  -2    2.87    0.24 
  -1  -5  -2    1.25    0.83 
  -1  -5  -2    0.91    0.77 
  -1  -5  -2    3.27    0.46 
  -1  -5  -2    2.32    0.74 
  -1  -5  -2    1.72    0.75 
  -1  -5  -2    2.53    0.38 
  -1  -5  -2    2.16    0.42 
  -1  -5  -3   22.62    0.72 
  -1  -5  -3   18.07    0.92 
  -1  -5  -3   10.87    1.34 
  -1  -5  -3   24.53    0.60 
  -1  -5  -3   21.42    0.55 
  -1  -5  -3   18.97    1.21 
  -1  -5  -3   17.17    1.24 
  -1  -5  -3   19.32    0.88 
  -1  -5  -3   24.12    0.98 
  -1  -5  -3   19.64    0.96 
  -1  -5  -3   14.94    1.39 
  -1  -5  -3   69.19    2.58 
  -1  -5  -3   58.46    2.38 
  -1  -5  -3   16.84    0.92 
  -1  -5  -3   21.88    0.98 
  -1  -5  -4    4.61    0.44 
  -1  -5  -4   64.98    2.99 
  -1  -5  -4    3.70    0.63 
  -1  -5  -4    3.30    0.62 
  -1  -5  -4    4.74    0.33 
  -1  -5  -4    3.92    0.29 
  -1  -5  -4    4.48    0.40 
  -1  -5  -4    4.79    0.97 
  -1  -5  -4    4.44    1.00 
  -1  -5  -4    3.76    0.56 
  -1  -5  -4    4.29    0.58 
  -1  -5  -4    4.25    0.61 
  -1  -5  -4    3.76    0.55 
  -1  -5  -4    6.40    1.22 
  -1  -5  -4   69.35    2.95 
  -1  -5  -4   55.79    2.70 
  -1  -5  -4    4.46    6.54 
  -1  -5  -5    0.83    0.56 
  -1  -5  -5   -0.12    0.38 
  -1  -5  -5    0.31    0.61 
  -1  -5  -5    0.21    0.62 
  -1  -5  -5   -0.02    0.37 
  -1  -5  -5    3.03    1.09 
  -1  -5  -5    0.45    0.53 
  -1  -5  -5   -0.13    0.51 
  -1  -5  -5    3.42    1.13 
  -1  -5  -5    0.31    0.53 
  -1  -5  -5    7.08    1.49 
  -1  -5  -5   79.54    3.38 
  -1  -5  -5   -0.18    0.43 
  -1  -5  -5   70.48    3.14 
  -1  -5  -5    0.07    0.53 
  -1  -5  -6    6.41    0.81 
  -1  -5  -6    6.91    0.61 
  -1  -5  -6    6.83    1.01 
  -1  -5  -6    5.11    0.97 
  -1  -5  -6    7.59    0.59 
  -1  -5  -6    5.98    0.83 
  -1  -5  -6    7.53    0.88 
  -1  -5  -6   10.28    1.54 
  -1  -5  -6    8.02    1.49 
  -1  -5  -6    5.58    0.86 
  -1  -5  -6   12.16    1.91 
  -1  -5  -6    6.69    0.86 
  -1  -5  -6    5.67    0.77 
  -1  -5  -7    4.92    0.78 
  -1  -5  -7    4.36    0.75 
  -1  -5  -7    3.50    0.55 
  -1  -5  -7    3.31    1.03 
  -1  -5  -7    2.81    1.00 
  -1  -5  -7    3.59    0.57 
  -1  -5  -7    4.74    0.87 
  -1  -5  -7    2.89    0.83 
  -1  -5  -7    3.20    0.82 
  -1  -5  -7    3.10    0.71 
  -1  -5  -7    3.26    0.81 
  -1  -5  -8    6.84    0.61 
  -1  -5  -8    7.10    0.85 
  -1  -5  -8    7.05    0.84 
  -1  -5  -8    6.75    0.91 
  -1  -5  -8    6.13    0.94 
  -1  -5  -8    3.24    0.84 
  -1  -5  -8    3.74    0.87 
  -1  -5  -8    5.90    1.13 
  -1  -5  -8    5.73    1.14 
  -1  -5  -9    3.51    0.89 
  -1  -5  -9    2.99    0.78 
  -1  -5  -9    3.29    0.80 
  -1  -5  -9    0.58    0.73 
  -1  -5  -9    0.91    0.83 
  -1  -5 -10   -0.12    0.75 
  -1  -5 -10    1.20    0.70 
  -1  -5 -10    1.80    0.74 
  -1  -6   9   -0.37    0.29 
  -1  -6   9   -0.39    0.33 
  -1  -6   8   -0.01    0.34 
  -1  -6   8    0.01    0.18 
  -1  -6   8    0.09    0.37 
  -1  -6   8    0.30    0.41 
  -1  -6   8    0.00    0.15 
  -1  -6   8   -0.21    0.40 
  -1  -6   7   -0.20    0.20 
  -1  -6   7    0.22    0.38 
  -1  -6   7    0.35    0.43 
  -1  -6   7    0.14    0.45 
  -1  -6   6    1.25    0.47 
  -1  -6   6    0.50    0.26 
  -1  -6   6    0.03    0.25 
  -1  -6   6    0.91    0.42 
  -1  -6   6    0.68    0.46 
  -1  -6   6    0.70    0.21 
  -1  -6   6    1.03    0.34 
  -1  -6   6    0.74    0.52 
  -1  -6   6    1.50    0.79 
  -1  -6   6    0.46    0.40 
  -1  -6   6    1.30    0.50 
  -1  -6   6    0.21    0.74 
  -1  -6   5    0.39    0.42 
  -1  -6   5    0.22    0.19 
  -1  -6   5    0.20    0.47 
  -1  -6   5    0.10    0.20 
  -1  -6   5    0.27    0.37 
  -1  -6   5    0.36    0.50 
  -1  -6   5    0.43    0.42 
  -1  -6   5    0.47    0.49 
  -1  -6   5    0.46    0.28 
  -1  -6   5    0.74    0.57 
  -1  -6   5    0.63    0.48 
  -1  -6   4    0.18    0.28 
  -1  -6   4    0.62    0.55 
  -1  -6   4    0.20    0.43 
  -1  -6   4    0.38    0.21 
  -1  -6   4   -0.06    0.48 
  -1  -6   4    0.32    0.22 
  -1  -6   4    0.67    0.46 
  -1  -6   4    0.46    0.54 
  -1  -6   4   -0.06    0.52 
  -1  -6   4    0.29    0.45 
  -1  -6   4    0.84    0.53 
  -1  -6   4    0.39    0.38 
  -1  -6   4    0.73    0.52 
  -1  -6   3   -0.38    0.57 
  -1  -6   3   -0.05    0.24 
  -1  -6   3   -0.19    0.22 
  -1  -6   3    0.01    0.23 
  -1  -6   3   -0.20    0.22 
  -1  -6   3    0.26    0.56 
  -1  -6   3    0.03    0.53 
  -1  -6   3   -0.17    0.46 
  -1  -6   3   -0.16    0.43 
  -1  -6   3   -0.23    0.50 
  -1  -6   3    0.76    0.55 
  -1  -6   3    0.35    0.54 
  -1  -6   3    0.27    0.46 
  -1  -6   2    5.19    0.37 
  -1  -6   2    6.25    0.80 
  -1  -6   2    6.88    0.33 
  -1  -6   2    5.86    0.35 
  -1  -6   2    5.84    0.31 
  -1  -6   2    5.59    0.30 
  -1  -6   2    4.74    0.46 
  -1  -6   2    5.48    0.73 
  -1  -6   2    5.21    0.68 
  -1  -6   2    4.57    0.77 
  -1  -6   2    6.18    0.76 
  -1  -6   2    4.71    0.71 
  -1  -6   2    4.14    0.46 
  -1  -6   2    5.69    0.72 
  -1  -6   2    6.18    0.79 
  -1  -6   2    6.17    0.76 
  -1  -6   1    8.47    0.65 
  -1  -6   1    8.12    0.61 
  -1  -6   1    6.83    0.72 
  -1  -6   1    7.80    0.86 
  -1  -6   1    8.01    0.44 
  -1  -6   1    9.64    0.42 
  -1  -6   1    6.65    0.36 
  -1  -6   1    8.90    0.41 
  -1  -6   1    8.73    0.35 
  -1  -6   1    7.33    0.57 
  -1  -6   1    8.96    0.97 
  -1  -6   1    8.39    0.89 
  -1  -6   1    6.97    0.81 
  -1  -6   0   28.99    1.14 
  -1  -6   0   25.97    1.06 
  -1  -6   0   18.30    1.08 
  -1  -6   0   26.17    1.33 
  -1  -6   0   30.29    1.63 
  -1  -6   0   29.05    0.82 
  -1  -6   0   30.74    0.75 
  -1  -6   0   27.11    0.70 
  -1  -6   0   28.11    0.68 
  -1  -6   0   29.79    0.77 
  -1  -6   0   31.57    0.70 
  -1  -6   0   25.49    1.05 
  -1  -6   0   33.63    1.61 
  -1  -6   0   23.40    1.37 
  -1  -6   0   28.03    1.40 
  -1  -6   0   27.46    1.34 
  -1  -6   0   23.11    1.26 
  -1  -6  -1   -0.01    0.39 
  -1  -6  -1    0.01    0.30 
  -1  -6  -1   -0.24    0.28 
  -1  -6  -1    0.48    0.26 
  -1  -6  -1    0.22    0.22 
  -1  -6  -1   -0.37    0.27 
  -1  -6  -1    0.30    0.24 
  -1  -6  -1    0.02    0.21 
  -1  -6  -1   -0.34    0.72 
  -1  -6  -1    0.09    0.71 
  -1  -6  -1    0.45    0.71 
  -1  -6  -1   -0.61    0.75 
  -1  -6  -1   -0.72    0.71 
  -1  -6  -1   -0.14    0.69 
  -1  -6  -1   -0.07    0.38 
  -1  -6  -1    0.22    0.39 
  -1  -6  -2    0.05    0.26 
  -1  -6  -2    0.40    0.28 
  -1  -6  -2    0.11    0.23 
  -1  -6  -2    0.38    0.25 
  -1  -6  -2    0.30    0.41 
  -1  -6  -2    0.25    0.82 
  -1  -6  -2   -0.29    0.83 
  -1  -6  -2    0.20    0.68 
  -1  -6  -2    0.06    0.64 
  -1  -6  -2    0.46    0.36 
  -1  -6  -2   -0.16    0.68 
  -1  -6  -2    0.24    0.68 
  -1  -6  -2    0.20    0.37 
  -1  -6  -2   -0.07    0.36 
  -1  -6  -3    0.20    0.45 
  -1  -6  -3    0.09    0.47 
  -1  -6  -3    3.06    1.88 
  -1  -6  -3    2.04    2.08 
  -1  -6  -3    0.42    0.25 
  -1  -6  -3    0.33    0.28 
  -1  -6  -3    0.29    0.43 
  -1  -6  -3   -1.54    1.02 
  -1  -6  -3    1.00    0.78 
  -1  -6  -3    1.48    0.91 
  -1  -6  -3    0.44    0.42 
  -1  -6  -3    0.93    0.77 
  -1  -6  -3    0.09    0.79 
  -1  -6  -3    0.02    0.37 
  -1  -6  -4    7.44    0.74 
  -1  -6  -4    6.14    1.08 
  -1  -6  -4    6.14    1.05 
  -1  -6  -4    9.58    0.84 
  -1  -6  -4    8.54    0.65 
  -1  -6  -4    7.95    0.63 
  -1  -6  -4    0.89    0.62 
  -1  -6  -4    7.07    0.81 
  -1  -6  -4    7.44    2.38 
  -1  -6  -4   10.43    0.49 
  -1  -6  -4    7.90    0.40 
  -1  -6  -4    7.38    0.84 
  -1  -6  -4    0.99    1.01 
  -1  -6  -4    2.61    1.15 
  -1  -6  -4    6.61    0.67 
  -1  -6  -4   -2.35    2.25 
  -1  -6  -4   -0.03    2.51 
  -1  -6  -4    8.32    0.86 
  -1  -6  -4    7.22    0.84 
  -1  -6  -5   59.54    1.89 
  -1  -6  -5   32.87    1.92 
  -1  -6  -5   41.32    1.65 
  -1  -6  -5   25.91    1.85 
  -1  -6  -5   50.06    1.40 
  -1  -6  -5   48.27    1.37 
  -1  -6  -5   51.10    1.33 
  -1  -6  -5   41.67    1.82 
  -1  -6  -5   40.25    3.19 
  -1  -6  -5    2.59    1.18 
  -1  -6  -5   49.22    1.87 
  -1  -6  -5   15.63    1.97 
  -1  -6  -5   39.89    1.41 
  -1  -6  -5   40.86    1.82 
  -1  -6  -5   50.50    1.86 
  -1  -6  -5   49.99    1.80 
  -1  -6  -6    4.33    0.80 
  -1  -6  -6    6.94    0.92 
  -1  -6  -6    5.58    0.92 
  -1  -6  -6    4.52    0.96 
  -1  -6  -6    4.86    0.98 
  -1  -6  -6    0.02    0.60 
  -1  -6  -6    0.01    0.80 
  -1  -6  -6    5.68    0.63 
  -1  -6  -6    5.75    0.91 
  -1  -6  -6    5.38    0.79 
  -1  -6  -7    0.56    1.22 
  -1  -6  -7   29.57    0.96 
  -1  -6  -7   24.88    0.99 
  -1  -6  -7    3.09    1.31 
  -1  -6  -7   25.52    1.46 
  -1  -6  -7   22.48    1.59 
  -1  -6  -7   23.97    1.47 
  -1  -6  -7   20.13    1.52 
  -1  -6  -8    8.98    1.15 
  -1  -6  -8    7.55    1.08 
  -1  -6  -8   10.84    0.68 
  -1  -6  -8   10.10    0.90 
  -1  -6  -8    9.44    0.85 
  -1  -6  -9   -0.47    0.63 
  -1  -6  -9   -0.95    0.67 
  -1  -7   9    0.32    0.18 
  -1  -7   8    0.78    0.30 
  -1  -7   7    0.10    0.15 
  -1  -7   7   -0.03    0.18 
  -1  -7   7   -0.06    0.29 
  -1  -7   7    0.21    0.37 
  -1  -7   7   -0.19    0.37 
  -1  -7   6    2.53    0.24 
  -1  -7   6    2.99    0.55 
  -1  -7   6    0.27    0.28 
  -1  -7   6    0.67    0.56 
  -1  -7   6    2.74    0.27 
  -1  -7   5   -0.02    0.27 
  -1  -7   5   -0.04    0.19 
  -1  -7   5   -0.05    0.33 
  -1  -7   5   -0.18    0.45 
  -1  -7   5    0.31    0.47 
  -1  -7   5    0.78    0.62 
  -1  -7   5   -0.30    0.73 
  -1  -7   4    0.05    0.23 
  -1  -7   4    0.95    0.27 
  -1  -7   4    0.06    0.21 
  -1  -7   4    0.85    0.23 
  -1  -7   4    0.93    0.31 
  -1  -7   4    1.11    0.49 
  -1  -7   4    1.28    0.51 
  -1  -7   4    0.47    0.49 
  -1  -7   4    0.89    0.43 
  -1  -7   4    0.81    0.40 
  -1  -7   4    0.56    0.49 
  -1  -7   3    0.24    0.53 
  -1  -7   3    0.33    0.26 
  -1  -7   3    0.31    0.22 
  -1  -7   3    0.24    0.24 
  -1  -7   3    0.15    0.22 
  -1  -7   3    0.34    0.49 
  -1  -7   3    0.20    0.40 
  -1  -7   3    0.39    0.50 
  -1  -7   3    0.28    0.51 
  -1  -7   3   -0.07    0.44 
  -1  -7   2   -0.15    0.33 
  -1  -7   2   -0.18    0.55 
  -1  -7   2    0.28    0.51 
  -1  -7   2    0.09    0.37 
  -1  -7   2    0.16    0.31 
  -1  -7   2    0.07    0.28 
  -1  -7   2    0.13    0.31 
  -1  -7   2    0.23    0.24 
  -1  -7   2    0.26    0.26 
  -1  -7   2    0.22    0.27 
  -1  -7   2    0.22    0.23 
  -1  -7   2    0.22    0.60 
  -1  -7   2    0.17    0.50 
  -1  -7   1    5.97    0.65 
  -1  -7   1    4.69    0.54 
  -1  -7   1    5.23    0.78 
  -1  -7   1    4.32    0.76 
  -1  -7   1    6.07    0.78 
  -1  -7   1    7.03    0.65 
  -1  -7   1    5.79    0.43 
  -1  -7   1    4.96    0.34 
  -1  -7   1    5.85    0.40 
  -1  -7   1    6.10    0.35 
  -1  -7   1    5.56    0.55 
  -1  -7   1    5.99    0.90 
  -1  -7   1    5.09    0.73 
  -1  -7   0    1.30    0.44 
  -1  -7   0    1.45    0.49 
  -1  -7   0    0.64    0.63 
  -1  -7   0    1.24    0.66 
  -1  -7   0    1.16    0.35 
  -1  -7   0    0.26    0.33 
  -1  -7   0    1.05    0.30 
  -1  -7   0    1.31    0.30 
  -1  -7   0    1.32    0.28 
  -1  -7   0    0.10    0.30 
  -1  -7   0    1.00    0.26 
  -1  -7   0    0.81    0.43 
  -1  -7   0    1.31    0.77 
  -1  -7   0    0.50    0.68 
  -1  -7   0    0.28    0.60 
  -1  -7   0    0.41    0.62 
  -1  -7  -1    4.60    0.66 
  -1  -7  -1    4.23    0.60 
  -1  -7  -1    4.29    0.81 
  -1  -7  -1    1.31    0.68 
  -1  -7  -1    4.09    0.93 
  -1  -7  -1    5.89    0.48 
  -1  -7  -1    6.17    0.42 
  -1  -7  -1    0.37    0.39 
  -1  -7  -1    5.49    0.36 
  -1  -7  -1    5.26    0.39 
  -1  -7  -1    4.15    0.34 
  -1  -7  -1    4.92    0.62 
  -1  -7  -1    3.06    0.72 
  -1  -7  -1    3.30    0.80 
  -1  -7  -1    2.69    0.73 
  -1  -7  -1    4.34    0.99 
  -1  -7  -2    1.34    0.54 
  -1  -7  -2    1.65    0.33 
  -1  -7  -2    1.90    0.37 
  -1  -7  -2    1.85    0.31 
  -1  -7  -2    0.12    0.34 
  -1  -7  -2    1.71    0.54 
  -1  -7  -2    1.43    0.54 
  -1  -7  -2    0.40    0.70 
  -1  -7  -2   -0.34    0.73 
  -1  -7  -2    0.79    0.79 
  -1  -7  -2   -0.40    0.77 
  -1  -7  -2   -0.32    0.71 
  -1  -7  -2    0.73    0.69 
  -1  -7  -2   -0.87    1.19 
  -1  -7  -3    0.71    0.71 
  -1  -7  -3   -1.01    0.78 
  -1  -7  -3   -0.54    0.70 
  -1  -7  -3    0.54    0.38 
  -1  -7  -3    0.53    0.30 
  -1  -7  -3    0.81    0.33 
  -1  -7  -3    0.21    0.50 
  -1  -7  -3   -0.23    0.75 
  -1  -7  -3    0.18    0.76 
  -1  -7  -3    0.50    0.82 
  -1  -7  -3    0.17    0.45 
  -1  -7  -3    0.32    0.67 
  -1  -7  -3    0.15    0.66 
  -1  -7  -3    0.51    0.44 
  -1  -7  -3    0.05    0.44 
  -1  -7  -3    0.35    0.41 
  -1  -7  -4   11.60    0.96 
  -1  -7  -4    9.89    0.96 
  -1  -7  -4    1.00    0.95 
  -1  -7  -4    6.54    1.01 
  -1  -7  -4    3.37    1.18 
  -1  -7  -4    6.72    0.81 
  -1  -7  -4   11.47    0.54 
  -1  -7  -4    8.40    0.43 
  -1  -7  -4    7.45    0.68 
  -1  -7  -4    9.09    0.68 
  -1  -7  -4    0.82    0.68 
  -1  -7  -4    8.41    0.68 
  -1  -7  -4    9.59    0.93 
  -1  -7  -4    7.94    0.83 
  -1  -7  -4    9.69    0.87 
  -1  -7  -4    4.83    0.94 
  -1  -7  -4    4.43    0.88 
  -1  -7  -4    5.33    0.98 
  -1  -7  -5    0.19    0.81 
  -1  -7  -5    0.29    0.71 
  -1  -7  -5   13.34    0.81 
  -1  -7  -5    0.85    0.79 
  -1  -7  -5   14.19    0.84 
  -1  -7  -5    1.61    0.97 
  -1  -7  -5   15.94    1.17 
  -1  -7  -5   11.11    1.03 
  -1  -7  -5   14.59    1.13 
  -1  -7  -5   10.19    1.00 
  -1  -7  -6   13.65    0.84 
  -1  -7  -6   13.35    0.75 
  -1  -7  -6   14.22    0.85 
  -1  -7  -6    9.84    1.05 
  -1  -7  -6   15.33    0.72 
  -1  -7  -6    9.48    1.04 
  -1  -7  -6   13.33    1.09 
  -1  -7  -6   13.48    1.13 
  -1  -7  -7    0.90    0.47 
  -1  -7  -7    1.08    0.64 
  -1  -7  -7    0.04    0.68 
  -1  -7  -7    1.24    0.47 
  -1  -7  -8    0.01    0.61 
  -1  -7  -8    0.26    0.40 
  -1  -8   5    0.98    0.22 
  -1  -8   5    1.04    0.18 
  -1  -8   5    1.04    0.31 
  -1  -8   5    0.64    0.48 
  -1  -8   5    0.96    0.55 
  -1  -8   5    1.08    0.23 
  -1  -8   4    0.95    0.24 
  -1  -8   4    0.07    0.21 
  -1  -8   4    0.07    0.19 
  -1  -8   4    1.10    0.21 
  -1  -8   4    0.94    0.40 
  -1  -8   4    1.06    0.38 
  -1  -8   4    0.25    0.55 
  -1  -8   4    1.27    0.27 
  -1  -8   3    0.10    0.20 
  -1  -8   3    0.20    0.36 
  -1  -8   3    0.45    0.40 
  -1  -8   3   -0.01    0.24 
  -1  -8   3    0.01    0.23 
  -1  -8   3    0.03    0.21 
  -1  -8   3    0.73    0.43 
  -1  -8   2    1.70    0.25 
  -1  -8   2    0.46    0.33 
  -1  -8   2    1.28    0.29 
  -1  -8   2    2.19    0.55 
  -1  -8   2    1.92    0.30 
  -1  -8   2    0.15    0.29 
  -1  -8   2    0.16    0.26 
  -1  -8   1    0.25    0.31 
  -1  -8   1    0.01    0.54 
  -1  -8   1    0.53    0.23 
  -1  -8   1    0.61    0.31 
  -1  -8   1    0.63    0.37 
  -1  -8   1    0.56    0.44 
  -1  -8   1    0.71    0.35 
  -1  -8   0    3.16    0.51 
  -1  -8   0    1.16    0.39 
  -1  -8   0    0.31    0.37 
  -1  -8   0    3.96    0.32 
  -1  -8   0    3.99    0.34 
  -1  -8   0    3.43    0.29 
  -1  -8   0    3.91    0.41 
  -1  -8   0    3.21    0.52 
  -1  -8   0    3.19    0.61 
  -1  -8   0    0.68    0.52 
  -1  -8   0    3.63    0.75 
  -1  -8  -1   -0.08    0.40 
  -1  -8  -1    0.00    0.29 
  -1  -8  -1    0.18    0.29 
  -1  -8  -1    0.04    0.26 
  -1  -8  -1   -0.06    0.50 
  -1  -8  -1    0.17    0.30 
  -1  -8  -1    0.37    0.35 
  -1  -8  -1    0.03    0.41 
  -1  -8  -1    0.15    0.44 
  -1  -8  -1   -0.06    0.64 
  -1  -8  -2    0.56    0.47 
  -1  -8  -2    0.04    0.30 
  -1  -8  -2    0.58    0.33 
  -1  -8  -2    0.50    0.28 
  -1  -8  -2   -0.02    0.55 
  -1  -8  -2    0.24    0.30 
  -1  -8  -2    0.43    0.73 
  -1  -8  -2    0.49    0.35 
  -1  -8  -2    0.60    0.33 
  -1  -8  -2    0.53    0.48 
  -1  -8  -2    0.27    0.47 
  -1  -8  -3    3.08    0.83 
  -1  -8  -3    3.59    0.43 
  -1  -8  -3    3.48    0.40 
  -1  -8  -3    2.61    0.31 
  -1  -8  -3    2.12    0.43 
  -1  -8  -3    2.43    0.45 
  -1  -8  -3    0.23    0.48 
  -1  -8  -3    0.24    0.56 
  -1  -8  -4    0.46    0.44 
  -1  -8  -4    0.52    0.43 
  -1  -8  -4    0.37    0.43 
  -1  -8  -4    0.10    0.32 
  -1  -8  -4    0.02    0.28 
  -1  -8  -5   13.51    0.72 
  -1  -8  -5   14.08    0.71 
  -1  -8  -5   12.66    0.72 
  -1  -8  -5   13.94    0.99 
  -1  -8  -5   13.16    1.02 
  -1  -8  -6    1.12    0.39 
  -1  -8  -6    1.06    0.41 
  -1  -8  -6    0.81    0.47 
  -1  -8  -6    1.22    0.46 
  -1  -8  -7    1.87    0.35 
  -1  -9   4    0.06    0.37 
  -1  -9   4    0.17    0.41 
  -1  -9   3   -0.02    0.28 
  -1  -9   3    0.01    0.18 
  -1  -9   3    0.01    0.15 
  -1  -9   3   -0.07    0.15 
  -1  -9   3    0.28    0.43 
  -1  -9   2   -0.16    0.16 
  -1  -9   2    0.13    0.20 
  -1  -9   2    0.00    0.21 
  -1  -9   2    0.02    0.17 
  -1  -9   2    0.22    0.22 
  -1  -9   1    0.02    0.19 
  -1  -9   1    0.02    0.23 
  -1  -9   1   -0.34    0.38 
  -1  -9   0    0.15    0.24 
  -1  -9   0   -0.01    0.19 
  -1  -9   0    0.01    0.26 
  -1  -9   0    0.10    0.25 
  -1  -9   0   -0.58    0.38 
  -1  -9  -1    0.24    0.25 
  -1  -9  -1    0.49    0.20 
  -1  -9  -1    0.01    0.29 
  -1  -9  -1    0.00    0.24 
  -1  -9  -1    0.22    0.33 
  -1  -9  -1   -0.03    0.37 
  -1  -9  -2   -0.04    0.37 
  -1  -9  -2   -0.13    0.27 
  -1  -9  -2   -0.06    0.26 
  -1  -9  -2   -0.19    0.21 
  -1  -9  -2    0.01    0.31 
  -1  -9  -3    0.14    0.24 
  -1  -9  -3    0.07    0.21 
  -1  -9  -3    0.35    0.28 
  -1  -9  -3    0.23    0.37 
  -1  -9  -4    0.15    0.29 
  -1  -9  -4    0.02    0.28 
  -1 -10   3    0.24    0.20 
  -1 -10   2    0.23    0.25 
  -1 -10   2    0.00    0.28 
  -1 -10   1    0.01    0.29 
   0  10   0    0.10    0.37 
   0  10  -2   -0.08    0.38 
   0   9   4    0.08    1.12 
   0   9   3    0.01    0.29 
   0   9   3    0.17    0.31 
   0   9   2    0.02    0.22 
   0   9   2    0.02    0.21 
   0   9   1   -0.01    0.23 
   0   9   1    0.40    0.23 
   0   9   1    0.39    0.38 
   0   9   0   -0.29    0.30 
   0   9   0    0.27    0.39 
   0   9   0    0.04    0.35 
   0   9   0    0.72    0.72 
   0   9   0   -0.02    1.43 
   0   9  -1    0.23    0.24 
   0   9  -1    0.08    0.24 
   0   9  -1    0.18    0.31 
   0   9  -1    0.28    0.36 
   0   9  -1   -0.16    0.38 
   0   9  -1   -0.11    0.74 
   0   9  -1   -0.05    1.45 
   0   9  -2    0.38    0.24 
   0   9  -2    0.17    0.24 
   0   9  -2    0.67    0.31 
   0   9  -2   -0.13    0.32 
   0   9  -2    0.36    0.35 
   0   9  -2    0.59    0.73 
   0   9  -3    0.24    0.29 
   0   9  -3    0.07    0.22 
   0   9  -3    0.40    0.23 
   0   9  -4    0.10    0.26 
   0   9  -4    0.20    0.61 
   0   9  -5   -0.23    0.54 
   0   8   7    1.01    0.41 
   0   8   6    0.42    0.22 
   0   8   6    0.08    0.22 
   0   8   6    0.47    0.52 
   0   8   5    0.28    0.35 
   0   8   5    0.62    0.37 
   0   8   5    0.55    0.27 
   0   8   5    0.49    0.25 
   0   8   5    0.15    0.58 
   0   8   4    1.57    0.42 
   0   8   4    1.04    0.44 
   0   8   4    1.71    0.31 
   0   8   4    1.78    0.31 
   0   8   4    0.98    0.63 
   0   8   3    0.82    0.48 
   0   8   3    0.75    0.45 
   0   8   3    0.71    0.27 
   0   8   3    0.61    0.29 
   0   8   3    0.48    0.29 
   0   8   3    0.73    0.29 
   0   8   3   -0.22    0.64 
   0   8   2    0.55    0.51 
   0   8   2    0.06    0.45 
   0   8   2   -0.10    0.29 
   0   8   2    0.23    0.30 
   0   8   2    0.01    0.26 
   0   8   2   -0.10    0.26 
   0   8   2   -0.02    0.35 
   0   8   1   -0.07    0.25 
   0   8   1    0.11    0.32 
   0   8   1   -0.32    0.33 
   0   8   1   -0.65    0.56 
   0   8   1   -0.04    0.37 
   0   8   0    0.71    0.56 
   0   8   0    0.34    0.41 
   0   8   0   -0.14    0.51 
   0   8   0    0.04    0.55 
   0   8  -1   -0.03    0.71 
   0   8  -1   -0.13    0.53 
   0   8  -1    0.63    0.52 
   0   8  -1    0.22    0.55 
   0   8  -1    0.72    0.44 
   0   8  -2    0.44    0.48 
   0   8  -2    1.73    1.85 
   0   8  -2   -0.01    0.58 
   0   8  -2    0.13    0.63 
   0   8  -2    0.98    0.76 
   0   8  -2    1.64    0.63 
   0   8  -2    0.92    0.39 
   0   8  -2    1.24    0.40 
   0   8  -2    1.13    0.55 
   0   8  -2    1.24    0.57 
   0   8  -3    0.96    1.76 
   0   8  -3   -0.04    0.57 
   0   8  -3   -0.05    0.61 
   0   8  -3   -0.22    0.72 
   0   8  -3    0.13    0.80 
   0   8  -3    0.23    0.51 
   0   8  -3    0.13    0.35 
   0   8  -3   -0.11    0.35 
   0   8  -3   -0.36    0.48 
   0   8  -3    0.30    0.51 
   0   8  -4    0.96    0.84 
   0   8  -4   -0.16    0.32 
   0   8  -4    0.28    0.33 
   0   8  -4    0.07    0.61 
   0   8  -4   -0.13    0.76 
   0   8  -4   -0.15    0.57 
   0   8  -4   -0.49    0.77 
   0   8  -4   -0.41    0.42 
   0   8  -4    0.52    0.46 
   0   8  -5   -0.08    0.27 
   0   8  -5   -0.18    0.27 
   0   8  -5    0.39    0.67 
   0   8  -5    0.68    0.78 
   0   8  -5    0.16    0.61 
   0   8  -5    0.23    0.59 
   0   8  -5   -0.21    0.69 
   0   8  -5   -0.14    0.53 
   0   8  -6   -0.29    0.71 
   0   8  -6    0.01    0.49 
   0   8  -6   -0.13    0.62 
   0   8  -6   -0.04    0.46 
   0   8  -7   -0.01    0.54 
   0   7   9   -0.12    0.31 
   0   7   8    0.46    0.29 
   0   7   8    0.15    0.30 
   0   7   7   -0.22    0.26 
   0   7   7   -0.18    0.27 
   0   7   7    0.13    0.36 
   0   7   7    0.55    0.38 
   0   7   6   -0.24    0.32 
   0   7   6   -0.31    0.27 
   0   7   6   -0.11    0.32 
   0   7   6   -0.09    0.41 
   0   7   6    0.08    0.41 
   0   7   5    0.49    0.44 
   0   7   5    0.49    0.46 
   0   7   5    0.38    0.34 
   0   7   5    0.69    0.33 
   0   7   5    0.29    0.26 
   0   7   5   -0.33    0.46 
   0   7   5   -0.19    0.45 
   0   7   4    2.10    0.39 
   0   7   4    1.77    0.34 
   0   7   4    1.71    0.37 
   0   7   4    1.58    0.34 
   0   7   4    1.73    0.30 
   0   7   4    1.67    0.47 
   0   7   4    1.70    0.47 
   0   7   4    1.76    0.51 
   0   7   4    2.11    0.56 
   0   7   4    1.55    0.61 
   0   7   3   -0.06    0.51 
   0   7   3    0.13    0.33 
   0   7   3   -0.06    0.32 
   0   7   3   -0.13    0.32 
   0   7   3    0.04    0.33 
   0   7   3    0.28    0.42 
   0   7   3    0.08    0.36 
   0   7   3   -0.30    0.40 
   0   7   3    0.29    0.56 
   0   7   3    0.34    0.52 
   0   7   3   -0.38    0.55 
   0   7   3   -0.47    0.51 
   0   7   2    0.85    0.37 
   0   7   2    1.29    0.37 
   0   7   2    1.02    0.34 
   0   7   2    1.45    0.35 
   0   7   2    1.09    0.55 
   0   7   2    1.18    0.61 
   0   7   2    1.03    0.58 
   0   7   2    1.29    0.42 
   0   7   1    1.56    0.45 
   0   7   1    0.13    0.39 
   0   7   1    1.31    0.34 
   0   7   1    0.35    0.39 
   0   7   1    0.88    0.32 
   0   7   1    0.82    0.50 
   0   7   0    0.13    0.48 
   0   7   0   -1.11    0.72 
   0   7   0    0.37    0.58 
   0   7   0   -0.23    0.58 
   0   7   0    0.10    0.61 
   0   7   0    0.70    0.70 
   0   7   0   -0.03    0.76 
   0   7   0    0.44    0.29 
   0   7   0    0.18    0.29 
   0   7   0    0.67    0.60 
   0   7   0    0.42    0.63 
   0   7  -1    0.63    0.67 
   0   7  -1    1.57    0.76 
   0   7  -1    2.45    0.66 
   0   7  -1    2.26    0.72 
   0   7  -1    1.21    0.91 
   0   7  -1    1.44    0.91 
   0   7  -1    1.08    0.80 
   0   7  -1    1.60    0.66 
   0   7  -1    2.61    0.73 
   0   7  -1    0.67    0.89 
   0   7  -2    3.16    0.74 
   0   7  -2    1.25    0.99 
   0   7  -2    2.82    0.80 
   0   7  -2   -0.15    0.92 
   0   7  -2    1.60    0.73 
   0   7  -2    2.80    0.79 
   0   7  -2    2.57    0.50 
   0   7  -2    2.86    0.50 
   0   7  -2    1.62    0.86 
   0   7  -2    1.09    0.78 
   0   7  -2    2.15    1.01 
   0   7  -2    1.96    0.86 
   0   7  -2    2.04    0.96 
   0   7  -3   -0.10    0.71 
   0   7  -3    0.64    0.63 
   0   7  -3    1.35    1.03 
   0   7  -3    0.35    0.82 
   0   7  -3    0.02    0.96 
   0   7  -3    0.30    0.75 
   0   7  -3    1.21    0.46 
   0   7  -3    0.64    0.45 
   0   7  -3    0.52    0.72 
   0   7  -3   -0.46    0.86 
   0   7  -3   -0.22    0.69 
   0   7  -3   -0.20    0.98 
   0   7  -3    0.07    2.01 
   0   7  -3    0.30    0.53 
   0   7  -4    1.90    0.61 
   0   7  -4    0.85    1.02 
   0   7  -4    2.81    0.48 
   0   7  -4    2.24    0.47 
   0   7  -4    2.33    1.07 
   0   7  -4    1.55    0.74 
   0   7  -4    0.33    0.91 
   0   7  -4    3.57    1.17 
   0   7  -4    0.60    1.04 
   0   7  -4    0.07    0.80 
   0   7  -5    0.44    0.92 
   0   7  -5    1.56    0.42 
   0   7  -5    1.00    0.40 
   0   7  -5    1.44    0.96 
   0   7  -5    0.92    0.97 
   0   7  -5    0.57    0.58 
   0   7  -5    0.06    0.89 
   0   7  -5    0.76    1.01 
   0   7  -5   -0.01    0.80 
   0   7  -6    0.57    0.52 
   0   7  -6   -0.03    0.82 
   0   7  -6    0.03    0.33 
   0   7  -6    0.35    0.34 
   0   7  -6    0.12    0.87 
   0   7  -6    0.45    0.92 
   0   7  -6    0.35    0.80 
   0   7  -6   -0.11    0.82 
   0   7  -6   -0.02    0.98 
   0   7  -6   -0.12    0.74 
   0   7  -7   -0.04    0.71 
   0   7  -7    0.21    0.84 
   0   7  -7   -0.10    0.65 
   0   7  -7    0.27    0.72 
   0   7  -7   -0.44    0.67 
   0   7  -7   -1.31    0.88 
   0   7  -7    0.47    0.43 
   0   7  -8    0.16    0.68 
   0   7  -8   -0.02    0.53 
   0   7  -9    0.72    0.52 
   0   6   9    0.25    0.36 
   0   6   8    4.10    0.50 
   0   6   8    3.74    0.50 
   0   6   8    3.83    0.35 
   0   6   8    3.84    0.36 
   0   6   8    3.93    0.38 
   0   6   7    4.30    0.40 
   0   6   7    4.22    0.78 
   0   6   7    5.57    0.59 
   0   6   7    6.05    0.60 
   0   6   6   65.74    1.57 
   0   6   6   70.97    1.39 
   0   6   6   61.65    1.57 
   0   6   6   23.26    1.42 
   0   6   6   12.60    1.94 
   0   6   6   70.36    2.36 
   0   6   6   79.43    1.67 
   0   6   6   78.09    1.66 
   0   6   5    0.45    0.53 
   0   6   5    0.74    0.53 
   0   6   5    0.33    0.62 
   0   6   5    0.89    0.40 
   0   6   5    0.53    0.38 
   0   6   5    0.37    0.33 
   0   6   5    0.32    0.63 
   0   6   5   -1.03    0.71 
   0   6   5    0.71    0.50 
   0   6   5    0.41    0.50 
   0   6   4   20.72    0.96 
   0   6   4   19.14    0.88 
   0   6   4   19.29    0.87 
   0   6   4   21.40    0.78 
   0   6   4   19.32    0.68 
   0   6   4   19.65    0.66 
   0   6   4   19.78    0.66 
   0   6   4   19.28    0.75 
   0   6   4   23.58    1.02 
   0   6   4   18.37    1.28 
   0   6   4   21.90    1.28 
   0   6   4   18.77    1.25 
   0   6   3    2.18    0.49 
   0   6   3    1.46    0.39 
   0   6   3    2.08    0.48 
   0   6   3    2.05    0.62 
   0   6   3    1.68    0.36 
   0   6   3    1.97    0.34 
   0   6   3    1.91    0.32 
   0   6   3    2.12    0.38 
   0   6   3    1.80    0.35 
   0   6   3    1.75    0.68 
   0   6   3    2.31    0.61 
   0   6   3    2.26    1.44 
   0   6   3    0.39    1.36 
   0   6   3    1.92    0.54 
   0   6   3    2.17    0.57 
   0   6   3    1.12    0.55 
   0   6   2    0.69    0.52 
   0   6   2    0.60    0.33 
   0   6   2    0.04    0.31 
   0   6   2    0.78    0.26 
   0   6   2    0.64    0.32 
   0   6   2    0.64    0.32 
   0   6   2    0.85    0.60 
   0   6   2    0.65    0.47 
   0   6   2    0.14    1.30 
   0   6   2    0.28    1.27 
   0   6   2    0.75    0.48 
   0   6   2    0.78    0.51 
   0   6   2    0.57    0.40 
   0   6   2    0.36    0.36 
   0   6   2    0.44    0.38 
   0   6   1   26.71    1.08 
   0   6   1   29.06    1.08 
   0   6   1   31.31    0.88 
   0   6   1   26.35    0.81 
   0   6   1   26.07    0.82 
   0   6   1   31.52    0.88 
   0   6   1   25.78    0.87 
   0   6   1   32.07    0.95 
   0   6   1   21.04    0.85 
   0   6   1   23.93    1.34 
   0   6   1   27.53    1.58 
   0   6   1   28.63    1.60 
   0   6   0    7.82    1.07 
   0   6   0    7.24    1.08 
   0   6   0    7.33    1.12 
   0   6   0    5.37    0.83 
   0   6   0    7.96    0.51 
   0   6   0    8.39    0.51 
   0   6   0    9.97    0.82 
   0   6   0    8.81    0.75 
   0   6   0    9.70    1.07 
   0   6   0    4.06    0.84 
   0   6  -1   17.69    1.04 
   0   6  -1   15.61    0.93 
   0   6  -1    6.41    1.28 
   0   6  -1   15.11    1.39 
   0   6  -1   12.36    1.34 
   0   6  -1   16.52    0.83 
   0   6  -1   12.64    0.60 
   0   6  -1    8.72    0.98 
   0   6  -1   12.35    0.59 
   0   6  -1   12.09    1.27 
   0   6  -1   11.26    1.23 
   0   6  -1   10.61    1.29 
   0   6  -1   16.68    0.90 
   0   6  -1   15.40    1.28 
   0   6  -1   13.37    1.37 
   0   6  -2    4.54    1.01 
   0   6  -2    3.53    1.13 
   0   6  -2    7.35    0.69 
   0   6  -2    2.57    1.12 
   0   6  -2    4.93    0.57 
   0   6  -2    5.01    0.57 
   0   6  -2    4.49    0.88 
   0   6  -2    0.78    1.00 
   0   6  -2    2.89    0.79 
   0   6  -2    2.63    0.97 
   0   6  -2    3.75    0.94 
   0   6  -2    3.44    0.95 
   0   6  -2    5.11    0.89 
   0   6  -2    6.83    0.74 
   0   6  -2    4.52    1.14 
   0   6  -3   10.90    1.47 
   0   6  -3    7.81    1.21 
   0   6  -3    6.81    1.24 
   0   6  -3    6.10    1.16 
   0   6  -3    0.90    1.23 
   0   6  -3    0.23    1.02 
   0   6  -3    1.17    1.11 
   0   6  -3   10.18    1.04 
   0   6  -3   12.73    1.00 
   0   6  -3   11.79    0.93 
   0   6  -3    7.23    1.47 
   0   6  -3   12.36    0.73 
   0   6  -3   11.26    0.74 
   0   6  -3   13.53    0.92 
   0   6  -3    8.46    1.04 
   0   6  -3   10.25    1.39 
   0   6  -4   12.51    2.53 
   0   6  -4    8.72    1.56 
   0   6  -4    7.36    1.14 
   0   6  -4    7.83    1.30 
   0   6  -4    9.26    1.21 
   0   6  -4   12.47    0.99 
   0   6  -4    5.69    0.77 
   0   6  -4    8.91    0.88 
   0   6  -4    9.34    1.59 
   0   6  -4   13.16    0.75 
   0   6  -4   12.28    0.74 
   0   6  -4    9.53    1.34 
   0   6  -4   21.29    1.56 
   0   6  -4    1.14    1.29 
   0   6  -4    0.75    1.10 
   0   6  -4    0.05    1.16 
   0   6  -4   11.14    1.04 
   0   6  -4   16.48    1.00 
   0   6  -5    1.00    0.74 
   0   6  -5    0.27    1.22 
   0   6  -5    0.12    1.00 
   0   6  -5    0.35    1.13 
   0   6  -5    0.64    0.66 
   0   6  -5    2.17    0.64 
   0   6  -5    2.35    1.24 
   0   6  -5    1.52    0.52 
   0   6  -5    1.75    0.53 
   0   6  -5    1.88    0.83 
   0   6  -5    0.89    0.89 
   0   6  -5    1.34    0.82 
   0   6  -5   -0.11    1.26 
   0   6  -5    2.01    0.85 
   0   6  -5   -0.04    1.18 
   0   6  -6    2.10    0.63 
   0   6  -6    4.10    0.81 
   0   6  -6    2.55    1.29 
   0   6  -6    3.60    0.54 
   0   6  -6    3.85    0.54 
   0   6  -6    2.53    1.09 
   0   6  -6    3.08    1.29 
   0   6  -6    1.87    1.12 
   0   6  -6   -0.11    1.28 
   0   6  -6    1.84    0.69 
   0   6  -6    0.72    1.06 
   0   6  -6    0.76    1.18 
   0   6  -7    0.66    0.63 
   0   6  -7    0.44    0.38 
   0   6  -7    0.46    0.39 
   0   6  -7    1.06    1.02 
   0   6  -7    0.53    0.90 
   0   6  -7    0.21    1.19 
   0   6  -7    0.37    0.94 
   0   6  -7    0.16    1.00 
   0   6  -7   -1.32    1.10 
   0   6  -8    1.07    0.54 
   0   6  -8    0.93    0.79 
   0   6  -8    0.72    0.85 
   0   6  -8   -0.28    1.10 
   0   6  -8    0.17    0.79 
   0   6  -8    0.08    0.86 
   0   6  -9    0.76    0.36 
   0   6  -9   -0.13    0.88 
   0   6  -9    0.04    0.60 
   0   6  -9    0.21    0.66 
   0   6 -10    1.33    0.56 
   0   5  10    0.30    0.31 
   0   5  10    0.23    0.30 
   0   5  10   -0.37    0.41 
   0   5   9    0.33    0.33 
   0   5   9   -0.73    0.56 
   0   5   9    0.49    0.43 
   0   5   9    0.44    0.42 
   0   5   8    0.76    0.42 
   0   5   8    0.93    0.42 
   0   5   8    2.92    0.89 
   0   5   8    1.29    0.66 
   0   5   8    1.13    0.35 
   0   5   8    1.31    0.37 
   0   5   8    1.48    0.36 
   0   5   8    0.99    0.68 
   0   5   7   65.88    1.43 
   0   5   7   68.11    1.44 
   0   5   7   67.55    1.41 
   0   5   7   90.62    2.06 
   0   5   7   50.36    1.72 
   0   5   7   36.38    1.62 
   0   5   7   34.62    1.60 
   0   5   7   41.59    1.79 
   0   5   7   65.03    2.38 
   0   5   6   77.24    1.70 
   0   5   6   81.38    1.77 
   0   5   6   83.11    1.79 
   0   5   6   55.44    2.05 
   0   5   6   76.51    1.53 
   0   5   6  104.76    2.22 
   0   5   6   11.59    1.93 
   0   5   6   58.10    1.87 
   0   5   6   48.82    1.82 
   0   5   6   44.97    1.79 
   0   5   6   74.88    1.71 
   0   5   6   78.50    2.55 
   0   5   5   31.15    1.05 
   0   5   5   29.04    1.00 
   0   5   5   34.72    1.07 
   0   5   5   34.60    1.07 
   0   5   5   28.59    1.45 
   0   5   5   32.84    0.86 
   0   5   5   35.78    1.45 
   0   5   5   20.11    1.75 
   0   5   5   24.93    1.18 
   0   5   5    6.03    1.46 
   0   5   5   19.40    1.04 
   0   5   5   18.78    1.01 
   0   5   5   23.95    1.29 
   0   5   5   33.24    1.58 
   0   5   4    1.82    0.43 
   0   5   4    1.30    0.44 
   0   5   4    1.24    0.46 
   0   5   4    1.09    0.45 
   0   5   4    1.13    0.57 
   0   5   4    1.63    0.28 
   0   5   4    1.36    0.33 
   0   5   4    1.49    0.34 
   0   5   4    1.72    0.29 
   0   5   4    1.70    0.30 
   0   5   4    2.24    0.80 
   0   5   4    0.76    1.22 
   0   5   4    0.36    1.10 
   0   5   4    0.78    0.43 
   0   5   4    1.02    0.41 
   0   5   4    1.28    0.50 
   0   5   4    0.61    0.38 
   0   5   4    0.97    0.52 
   0   5   4    1.50    0.60 
   0   5   3    2.95    0.56 
   0   5   3    2.37    0.42 
   0   5   3    3.58    0.49 
   0   5   3    3.32    0.46 
   0   5   3    2.81    0.44 
   0   5   3    3.01    0.36 
   0   5   3    3.87    0.37 
   0   5   3    3.98    0.37 
   0   5   3    3.85    0.32 
   0   5   3    3.57    0.32 
   0   5   3    4.13    0.32 
   0   5   3    4.51    0.53 
   0   5   3    2.63    0.47 
   0   5   3    2.96    0.48 
   0   5   3    2.04    0.62 
   0   5   3    3.48    0.65 
   0   5   3    3.17    0.66 
   0   5   2   33.43    1.10 
   0   5   2   33.88    1.41 
   0   5   2   38.60    1.16 
   0   5   2   31.34    1.01 
   0   5   2   30.90    1.01 
   0   5   2   42.01    0.98 
   0   5   2   38.91    0.97 
   0   5   2   37.59    0.89 
   0   5   2   37.82    0.89 
   0   5   2   37.99    0.96 
   0   5   2   38.45    0.90 
   0   5   2   36.68    1.48 
   0   5   2   46.81    1.70 
   0   5   2   29.60    1.13 
   0   5   2   30.90    1.17 
   0   5   2   34.32    1.48 
   0   5   2   41.77    1.21 
   0   5   1   24.86    0.93 
   0   5   1   26.54    0.91 
   0   5   1   14.74    1.16 
   0   5   1   21.50    1.10 
   0   5   1   19.80    0.75 
   0   5   1   19.82    0.75 
   0   5   1   21.28    0.70 
   0   5   1   21.34    0.70 
   0   5   1   18.69    0.62 
   0   5   1   20.81    0.67 
   0   5   1   20.50    0.67 
   0   5   1   20.13    0.89 
   0   5   1   19.94    0.90 
   0   5   1   19.52    1.15 
   0   5   1   23.46    1.29 
   0   5   0   80.46    2.39 
   0   5   0   67.62    2.46 
   0   5   0   80.72    1.66 
   0   5   0   61.34    2.08 
   0   5   0   60.65    1.40 
   0   5   0   90.77    1.89 
   0   5   0   80.13    1.75 
   0   5   0   99.71    2.23 
   0   5   0   69.73    2.34 
   0   5   0   62.37    1.75 
   0   5   0   61.74    1.75 
   0   5   0   88.78    2.41 
   0   5   0   71.53    1.66 
   0   5   0   71.45    1.69 
   0   5   0   74.48    2.29 
   0   5   0   73.07    2.28 
   0   5  -1    6.24    0.94 
   0   5  -1    4.94    0.93 
   0   5  -1    5.69    0.92 
   0   5  -1    4.99    0.71 
   0   5  -1    7.68    0.61 
   0   5  -1    5.95    1.04 
   0   5  -1    5.46    0.78 
   0   5  -1    8.04    0.82 
   0   5  -1    7.25    0.73 
   0   5  -1    7.55    0.99 
   0   5  -1    7.12    0.80 
   0   5  -1    5.99    0.65 
   0   5  -1    9.20    1.10 
   0   5  -1    9.23    0.69 
   0   5  -1    8.24    0.99 
   0   5  -1    5.42    1.00 
   0   5  -1    6.94    1.13 
   0   5  -2    2.72    0.88 
   0   5  -2    3.35    0.86 
   0   5  -2    3.29    0.85 
   0   5  -2    2.31    0.65 
   0   5  -2    2.65    0.59 
   0   5  -2    2.40    0.56 
   0   5  -2    2.78    0.63 
   0   5  -2    2.76    0.97 
   0   5  -2    2.00    0.68 
   0   5  -2    2.09    0.37 
   0   5  -2    3.08    0.50 
   0   5  -2    3.41    0.50 
   0   5  -2    2.09    0.37 
   0   5  -2    2.45    0.70 
   0   5  -2    1.15    0.90 
   0   5  -2    2.65    0.70 
   0   5  -2    3.06    0.77 
   0   5  -2    2.40    0.97 
   0   5  -2   -0.80    0.87 
   0   5  -2    4.24    0.59 
   0   5  -2    1.11    0.90 
   0   5  -2    3.41    0.98 
   0   5  -3    7.80    1.14 
   0   5  -3    6.16    1.12 
   0   5  -3    5.37    1.10 
   0   5  -3   11.79    1.06 
   0   5  -3    7.06    0.89 
   0   5  -3    1.78    1.02 
   0   5  -3    7.85    0.91 
   0   5  -3    7.98    0.86 
   0   5  -3    8.50    0.82 
   0   5  -3    6.96    0.75 
   0   5  -3    9.55    1.31 
   0   5  -3    4.72    0.80 
   0   5  -3   10.13    0.67 
   0   5  -3    9.30    0.66 
   0   5  -3    5.49    1.25 
   0   5  -3   13.73    0.81 
   0   5  -3    3.39    1.06 
   0   5  -3   -1.27    1.59 
   0   5  -4   -0.14    1.03 
   0   5  -4    1.60    0.91 
   0   5  -4    1.09    0.87 
   0   5  -4   -0.44    0.70 
   0   5  -4    1.00    0.68 
   0   5  -4    0.60    0.73 
   0   5  -4   -0.07    1.03 
   0   5  -4    0.95    0.50 
   0   5  -4    0.77    0.51 
   0   5  -4    0.81    1.09 
   0   5  -4    0.42    0.55 
   0   5  -4    0.74    0.53 
   0   5  -4    0.03    0.87 
   0   5  -4   -0.53    0.86 
   0   5  -4   -0.24    0.82 
   0   5  -5   12.67    1.53 
   0   5  -5   11.06    1.44 
   0   5  -5   18.73    1.92 
   0   5  -5   31.50    1.63 
   0   5  -5   21.63    1.41 
   0   5  -5    1.32    1.32 
   0   5  -5   13.87    1.17 
   0   5  -5   13.91    1.09 
   0   5  -5   22.97    1.20 
   0   5  -5   17.73    1.09 
   0   5  -5   17.54    1.16 
   0   5  -5   17.95    1.94 
   0   5  -5   24.01    0.90 
   0   5  -5   20.67    0.87 
   0   5  -5   24.80    1.19 
   0   5  -5   12.01    1.42 
   0   5  -5   -1.01    1.83 
   0   5  -5   17.49    1.78 
   0   5  -6    0.62    1.21 
   0   5  -6    0.88    0.87 
   0   5  -6    1.39    0.81 
   0   5  -6    0.42    0.82 
   0   5  -6   -0.04    1.22 
   0   5  -6    0.15    0.52 
   0   5  -6    0.09    0.52 
   0   5  -6    1.61    1.14 
   0   5  -6    0.10    0.63 
   0   5  -6    0.49    1.14 
   0   5  -6    0.49    1.42 
   0   5  -6    0.41    1.19 
   0   5  -6    0.54    1.14 
   0   5  -6    0.28    0.91 
   0   5  -6    0.41    0.81 
   0   5  -6   -0.46    0.85 
   0   5  -7    1.63    0.99 
   0   5  -7    3.39    0.77 
   0   5  -7    0.86    0.65 
   0   5  -7    0.54    1.38 
   0   5  -7    0.10    1.26 
   0   5  -7   -0.09    1.21 
   0   5  -7    1.50    1.26 
   0   5  -7    1.65    0.51 
   0   5  -7    1.76    0.51 
   0   5  -7    2.50    0.84 
   0   5  -7    3.36    0.85 
   0   5  -7    3.64    0.91 
   0   5  -7    0.93    0.61 
   0   5  -7    1.87    1.16 
   0   5  -7    4.30    0.72 
   0   5  -8   -0.19    0.70 
   0   5  -8    1.34    0.75 
   0   5  -8    2.57    0.84 
   0   5  -8    0.37    0.39 
   0   5  -8    0.57    0.40 
   0   5  -8   -0.55    1.13 
   0   5  -8    0.03    1.33 
   0   5  -8    0.39    1.13 
   0   5  -8    0.68    1.12 
   0   5  -8    1.62    1.04 
   0   5  -9    0.25    0.53 
   0   5  -9    0.55    0.95 
   0   5  -9    0.48    1.22 
   0   5  -9    0.42    0.93 
   0   5  -9    0.63    0.89 
   0   5  -9    0.03    0.77 
   0   5  -9    0.17    0.94 
   0   5 -10    2.97    1.01 
   0   5 -10    5.59    0.78 
   0   5 -10    4.80    0.81 
   0   4  11    0.33    0.37 
   0   4  10    0.57    0.38 
   0   4  10    0.32    0.38 
   0   4  10   -0.04    0.53 
   0   4  10    0.17    0.34 
   0   4  10    0.12    0.34 
   0   4   9    2.02    1.46 
   0   4   9   15.39    1.07 
   0   4   9    8.87    0.76 
   0   4   9    7.73    0.72 
   0   4   9   15.43    0.75 
   0   4   9   15.93    0.75 
   0   4   9   17.47    1.02 
   0   4   9   10.37    0.88 
   0   4   8   34.21    1.60 
   0   4   8   55.30    1.26 
   0   4   8   55.07    1.27 
   0   4   8   81.06    2.41 
   0   4   8   55.39    1.85 
   0   4   8   34.05    1.56 
   0   4   8   33.10    1.56 
   0   4   8   61.88    1.73 
   0   4   8   42.26    1.59 
   0   4   8   58.06    1.48 
   0   4   8   56.60    1.46 
   0   4   7    2.84    0.60 
   0   4   7    3.81    0.61 
   0   4   7    3.43    0.90 
   0   4   7    2.23    0.71 
   0   4   7    1.73    0.59 
   0   4   7    0.94    0.56 
   0   4   7    2.78    0.43 
   0   4   7    2.75    0.43 
   0   4   7    2.77    0.42 
   0   4   7    2.68    1.00 
   0   4   7    2.63    0.86 
   0   4   7    4.65    1.16 
   0   4   7    3.44    0.88 
   0   4   7    2.00    0.58 
   0   4   6  171.17    3.60 
   0   4   6  152.84    3.12 
   0   4   6  148.33    2.71 
   0   4   6  144.00    2.67 
   0   4   6  108.25    3.01 
   0   4   6  137.01    2.54 
   0   4   6  134.69    2.52 
   0   4   6  138.60    2.52 
   0   4   6   97.62    2.90 
   0   4   6   96.90    2.88 
   0   4   6  174.32    3.04 
   0   4   6  111.37    2.85 
   0   4   6  144.07    3.61 
   0   4   6  161.47    3.53 
   0   4   5   12.62    0.61 
   0   4   5   12.13    0.59 
   0   4   5    7.94    0.67 
   0   4   5    8.34    0.68 
   0   4   5    7.40    0.72 
   0   4   5    7.04    0.70 
   0   4   5    9.83    0.80 
   0   4   5   11.65    0.50 
   0   4   5   11.28    0.48 
   0   4   5   11.60    0.49 
   0   4   5    6.61    0.52 
   0   4   5    8.38    0.74 
   0   4   5   11.16    0.87 
   0   4   5   11.07    0.96 
   0   4   4   -0.17    0.50 
   0   4   4    0.03    0.42 
   0   4   4   -0.38    0.39 
   0   4   4    0.14    0.29 
   0   4   4    0.02    0.31 
   0   4   4    0.32    0.35 
   0   4   4   -0.09    0.34 
   0   4   4    0.23    0.45 
   0   4   4    0.04    0.19 
   0   4   4    0.06    0.19 
   0   4   4   -0.03    0.22 
   0   4   4    0.01    0.40 
   0   4   4   -0.13    0.36 
   0   4   4   -0.07    0.37 
   0   4   4    0.10    0.34 
   0   4   4    0.04    0.28 
   0   4   4   -0.36    0.32 
   0   4   4    0.02    0.30 
   0   4   3    0.88    0.46 
   0   4   3    0.43    0.51 
   0   4   3    0.88    0.35 
   0   4   3    1.08    0.38 
   0   4   3    0.85    0.39 
   0   4   3    0.62    0.26 
   0   4   3    0.96    0.38 
   0   4   3    0.75    0.48 
   0   4   3    0.94    0.23 
   0   4   3    0.56    0.27 
   0   4   3    0.60    0.25 
   0   4   3    0.51    0.26 
   0   4   3    0.99    0.23 
   0   4   3    0.60    0.38 
   0   4   3    0.52    0.38 
   0   4   3    0.45    0.37 
   0   4   3    0.45    0.36 
   0   4   3    0.76    0.33 
   0   4   3    0.49    0.39 
   0   4   2    7.67    0.66 
   0   4   2    6.83    0.50 
   0   4   2   10.02    0.60 
   0   4   2    9.08    0.58 
   0   4   2    6.27    0.52 
   0   4   2    9.17    0.43 
   0   4   2    6.69    0.51 
   0   4   2    7.14    0.43 
   0   4   2    6.65    0.38 
   0   4   2    7.54    0.37 
   0   4   2    7.17    0.42 
   0   4   2    7.63    0.38 
   0   4   2    7.36    0.55 
   0   4   2    6.73    0.55 
   0   4   2    6.80    0.53 
   0   4   2    7.10    0.74 
   0   4   2    4.63    0.70 
   0   4   2    7.34    0.76 
   0   4   2    8.39    0.76 
   0   4   1  182.91    3.58 
   0   4   1  158.51    2.86 
   0   4   1  169.36    2.87 
   0   4   1  161.56    2.88 
   0   4   1  159.30    3.57 
   0   4   1  184.06    3.28 
   0   4   1  184.44    3.29 
   0   4   1  195.72    2.94 
   0   4   1  140.65    2.88 
   0   4   1  174.88    3.62 
   0   4   1  154.01    3.50 
   0   4   0   48.86    1.67 
   0   4   0   30.29    1.45 
   0   4   0   52.03    1.14 
   0   4   0   41.60    1.07 
   0   4   0   38.86    1.63 
   0   4   0   40.81    1.53 
   0   4   0   42.71    1.06 
   0   4   0   48.65    1.30 
   0   4   0   46.97    1.30 
   0   4   0   50.28    1.70 
   0   4   0   48.74    1.12 
   0   4   0   54.10    1.19 
   0   4   0   59.60    1.77 
   0   4   0   49.23    1.66 
   0   4   0   51.08    1.65 
   0   4  -1   37.64    1.52 
   0   4  -1   39.46    1.54 
   0   4  -1   34.86    1.54 
   0   4  -1   33.16    1.13 
   0   4  -1   46.83    1.54 
   0   4  -1   31.56    1.22 
   0   4  -1   28.89    1.15 
   0   4  -1   32.92    1.06 
   0   4  -1   31.87    1.60 
   0   4  -1   26.46    1.38 
   0   4  -1   37.79    1.63 
   0   4  -1   37.87    1.22 
   0   4  -1   35.36    1.19 
   0   4  -1   46.08    1.11 
   0   4  -1   38.57    0.96 
   0   4  -1   41.38    1.64 
   0   4  -1   35.74    1.61 
   0   4  -1   36.78    1.96 
   0   4  -2    4.98    0.93 
   0   4  -2    5.46    0.97 
   0   4  -2    4.70    0.93 
   0   4  -2    1.53    0.81 
   0   4  -2    7.22    0.92 
   0   4  -2    6.30    0.84 
   0   4  -2    3.62    1.00 
   0   4  -2    1.80    0.72 
   0   4  -2    5.34    0.74 
   0   4  -2    5.07    1.05 
   0   4  -2    3.44    0.87 
   0   4  -2    4.93    0.56 
   0   4  -2    4.93    0.56 
   0   4  -2    4.09    1.08 
   0   4  -2    5.27    0.58 
   0   4  -2    9.66    0.63 
   0   4  -2    3.13    1.00 
   0   4  -2    1.03    1.22 
   0   4  -3    7.47    1.01 
   0   4  -3    8.17    1.03 
   0   4  -3    7.06    0.99 
   0   4  -3    6.09    0.93 
   0   4  -3    1.83    0.99 
   0   4  -3    4.86    0.88 
   0   4  -3    4.94    0.78 
   0   4  -3    8.21    0.83 
   0   4  -3    7.36    0.79 
   0   4  -3    7.14    1.21 
   0   4  -3    3.91    0.87 
   0   4  -3    6.50    0.64 
   0   4  -3    6.14    0.63 
   0   4  -3    6.55    1.21 
   0   4  -3    8.71    0.66 
   0   4  -3    6.48    0.99 
   0   4  -3   10.83    0.67 
   0   4  -3    6.89    1.17 
   0   4  -3    2.52    1.46 
   0   4  -4    1.05    0.77 
   0   4  -4    0.78    0.73 
   0   4  -4    0.90    0.77 
   0   4  -4    8.85    0.97 
   0   4  -4    0.98    0.94 
   0   4  -4    1.71    0.82 
   0   4  -4    8.81    0.89 
   0   4  -4    1.22    0.72 
   0   4  -4    2.34    1.06 
   0   4  -4    0.72    0.69 
   0   4  -4    0.29    0.64 
   0   4  -4   -1.13    0.65 
   0   4  -4    1.63    1.03 
   0   4  -4    1.20    0.55 
   0   4  -4    8.42    1.28 
   0   4  -4    1.80    1.44 
   0   4  -5   13.06    1.33 
   0   4  -5   14.12    1.26 
   0   4  -5   43.22    1.41 
   0   4  -5   13.48    1.10 
   0   4  -5   14.31    1.60 
   0   4  -5   24.77    1.02 
   0   4  -5   25.00    0.98 
   0   4  -5   14.73    1.59 
   0   4  -5   21.93    2.21 
   0   4  -5   20.01    1.05 
   0   4  -5   41.39    1.46 
   0   4  -5    1.86    1.13 
   0   4  -5   21.41    0.98 
   0   4  -5   13.78    1.24 
   0   4  -5   26.22    1.70 
   0   4  -6   -0.03    0.99 
   0   4  -6   32.12    1.35 
   0   4  -6    0.64    1.22 
   0   4  -6    0.10    0.54 
   0   4  -6    0.08    1.19 
   0   4  -6   15.98    0.87 
   0   4  -6   10.47    0.82 
   0   4  -6   34.99    1.32 
   0   4  -6    0.25    0.66 
   0   4  -6    5.58    1.75 
   0   4  -6    0.50    1.13 
   0   4  -6    0.12    0.79 
   0   4  -6    0.34    0.84 
   0   4  -6    0.43    0.80 
   0   4  -7    7.55    1.03 
   0   4  -7    1.24    1.44 
   0   4  -7   11.31    1.00 
   0   4  -7    0.51    0.90 
   0   4  -7    0.41    0.83 
   0   4  -7    0.21    0.81 
   0   4  -7   -0.17    1.34 
   0   4  -7    6.62    0.75 
   0   4  -7    3.52    0.71 
   0   4  -7    0.30    0.60 
   0   4  -7   -0.34    1.20 
   0   4  -7    0.08    0.69 
   0   4  -8    0.70    1.32 
   0   4  -8    1.94    0.85 
   0   4  -8    0.46    1.20 
   0   4  -8    1.20    0.77 
   0   4  -8    0.98    1.14 
   0   4  -8    0.44    0.64 
   0   4  -8    0.83    0.89 
   0   4  -9    0.78    1.01 
   0   4  -9    0.75    1.14 
   0   4  -9    0.97    1.17 
   0   4  -9    0.33    1.14 
   0   4  -9    0.38    1.40 
   0   4  -9    0.05    1.11 
   0   4  -9    1.45    0.70 
   0   4 -10    0.38    0.98 
   0   4 -10    0.39    1.27 
   0   4 -10    0.60    0.75 
   0   4 -10    1.11    0.81 
   0   4 -11    0.27    0.99 
   0   3  11    0.24    0.83 
   0   3  11    1.18    0.51 
   0   3  10    4.24    0.71 
   0   3  10    2.66    0.52 
   0   3  10    2.59    0.53 
   0   3  10    0.66    1.09 
   0   3  10    5.92    0.84 
   0   3  10    4.38    0.49 
   0   3  10    4.47    0.50 
   0   3   9    9.84    0.67 
   0   3   9    9.58    0.67 
   0   3   9    8.22    0.90 
   0   3   9    7.45    0.85 
   0   3   9    5.41    0.68 
   0   3   9    5.50    0.67 
   0   3   9    7.76    0.48 
   0   3   9    9.46    0.52 
   0   3   9   12.22    1.34 
   0   3   9    9.73    1.01 
   0   3   9    8.37    1.00 
   0   3   9    9.31    1.27 
   0   3   8    6.71    1.16 
   0   3   8    6.39    0.89 
   0   3   8    5.02    0.91 
   0   3   8    7.34    1.23 
   0   3   8    4.67    0.60 
   0   3   8    5.17    0.61 
   0   3   8    3.33    0.68 
   0   3   8    4.46    0.42 
   0   3   8    1.79    0.44 
   0   3   8    4.14    0.41 
   0   3   8    4.57    0.43 
   0   3   8    3.32    0.64 
   0   3   8    2.48    0.61 
   0   3   8    3.25    0.62 
   0   3   8    3.54    0.61 
   0   3   8    2.89    0.84 
   0   3   8    2.52    0.70 
   0   3   8    3.32    0.59 
   0   3   7    6.23    0.84 
   0   3   7    5.43    0.69 
   0   3   7    5.04    0.53 
   0   3   7    3.99    0.58 
   0   3   7    5.11    0.65 
   0   3   7    4.03    0.69 
   0   3   7    3.77    0.67 
   0   3   7    8.62    1.11 
   0   3   7    8.32    0.85 
   0   3   7    7.95    1.04 
   0   3   7    6.53    0.58 
   0   3   7    6.41    0.58 
   0   3   7    6.95    0.44 
   0   3   7    6.07    0.43 
   0   3   7    6.52    0.43 
   0   3   7    4.86    0.73 
   0   3   7    3.91    0.61 
   0   3   6   -0.36    0.77 
   0   3   6   -0.57    0.58 
   0   3   6    0.45    0.36 
   0   3   6    0.06    0.35 
   0   3   6    0.19    0.42 
   0   3   6    0.02    0.42 
   0   3   6    0.13    0.39 
   0   3   6    0.30    0.38 
   0   3   6    0.35    0.38 
   0   3   6    0.09    0.25 
   0   3   6   -0.12    0.27 
   0   3   6    0.16    0.26 
   0   3   6    0.20    0.43 
   0   3   6   -0.41    0.46 
   0   3   6   -0.50    0.72 
   0   3   6   -0.45    0.50 
   0   3   5    0.17    0.26 
   0   3   5    0.10    0.27 
   0   3   5   -0.16    0.40 
   0   3   5   -0.01    0.39 
   0   3   5    0.48    0.43 
   0   3   5    0.11    0.24 
   0   3   5   -0.18    0.34 
   0   3   5    0.15    0.24 
   0   3   5    0.15    0.21 
   0   3   5    0.21    0.23 
   0   3   5   -0.10    0.26 
   0   3   5    0.32    0.43 
   0   3   5   -0.01    0.29 
   0   3   5    0.08    0.30 
   0   3   5   -0.26    0.53 
   0   3   4  121.21    2.69 
   0   3   4  119.84    2.68 
   0   3   4  114.75    2.74 
   0   3   4  114.85    2.73 
   0   3   4  141.83    2.45 
   0   3   4  143.49    2.85 
   0   3   4  160.46    2.55 
   0   3   4  155.64    2.51 
   0   3   4  131.49    2.64 
   0   3   4  122.95    2.79 
   0   3   4  135.92    2.37 
   0   3   4  106.70    2.44 
   0   3   4  125.97    2.79 
   0   3   4  154.12    2.89 
   0   3   4  151.90    3.11 
   0   3   4  137.72    2.36 
   0   3   4  134.62    2.36 
   0   3   4  136.65    2.26 
   0   3   4  136.28    2.27 
   0   3   4  135.67    2.28 
   0   3   3   25.82    0.67 
   0   3   3   31.95    0.98 
   0   3   3   28.62    0.84 
   0   3   3   29.34    0.68 
   0   3   3   32.95    0.64 
   0   3   3   31.60    0.64 
   0   3   3   29.92    1.00 
   0   3   3   27.16    0.80 
   0   3   3   27.03    0.94 
   0   3   3   27.49    0.93 
   0   3   3   31.59    0.97 
   0   3   3   33.30    1.18 
   0   3   3   32.68    1.09 
   0   3   3   29.01    0.92 
   0   3   3   27.96    0.90 
   0   3   2    0.10    0.32 
   0   3   2    0.17    0.39 
   0   3   2    0.07    0.19 
   0   3   2    0.02    0.19 
   0   3   2    0.12    0.19 
   0   3   2    0.22    0.27 
   0   3   2    0.32    0.27 
   0   3   2    0.02    0.43 
   0   3   2   -0.22    0.37 
   0   3   2   -0.11    0.29 
   0   3   2   -0.35    0.32 
   0   3   2    0.13    0.43 
   0   3   2    0.51    0.34 
   0   3   2    0.27    0.27 
   0   3   1  171.23    2.91 
   0   3   1  185.91    3.33 
   0   3   1  166.70    3.33 
   0   3   1  189.02    3.34 
   0   3   1  195.01    3.53 
   0   3   1  170.22    3.30 
   0   3   1  145.78    2.77 
   0   3   0  210.14    3.51 
   0   3   0  225.79    3.52 
   0   3   0  197.29    3.95 
   0   3   0  201.89    4.02 
   0   3   0  218.20    4.07 
   0   3   0  221.56    4.03 
   0   3  -1   30.07    1.22 
   0   3  -1   17.61    0.79 
   0   3  -1   38.07    0.85 
   0   3  -1   32.52    1.21 
   0   3  -1   29.87    0.73 
   0   3  -1   38.89    1.43 
   0   3  -1   28.83    1.23 
   0   3  -1   27.30    1.26 
   0   3  -1   29.70    0.72 
   0   3  -1   28.78    1.29 
   0   3  -1   33.60    1.72 
   0   3  -1   28.62    1.29 
   0   3  -2  378.79    6.64 
   0   3  -2  361.30    6.51 
   0   3  -2  335.46    6.71 
   0   3  -2  325.03    6.50 
   0   3  -2  372.73    6.55 
   0   3  -2  383.07    6.87 
   0   3  -2  369.66    5.96 
   0   3  -2  417.29    7.53 
   0   3  -2  323.28    6.67 
   0   3  -3   59.11    1.76 
   0   3  -3   55.99    1.69 
   0   3  -3   53.00    1.92 
   0   3  -3   35.11    1.09 
   0   3  -3   34.97    1.08 
   0   3  -3   72.19    1.36 
   0   3  -3   32.68    2.08 
   0   3  -3   16.85    1.48 
   0   3  -3   56.70    1.70 
   0   3  -3   50.34    1.92 
   0   3  -4   31.04    1.02 
   0   3  -4   23.73    1.48 
   0   3  -4   18.16    1.15 
   0   3  -4   18.06    1.09 
   0   3  -4    4.59    1.79 
   0   3  -4   19.78    1.44 
   0   3  -4   31.49    0.95 
   0   3  -4   23.73    1.26 
   0   3  -4   21.83    0.98 
   0   3  -4   19.60    0.92 
   0   3  -4   14.26    1.00 
   0   3  -4   23.59    1.25 
   0   3  -4   25.03    1.26 
   0   3  -5    5.14    0.67 
   0   3  -5    4.98    1.09 
   0   3  -5    3.16    0.87 
   0   3  -5    2.69    0.83 
   0   3  -5    3.18    0.98 
   0   3  -5    0.04    1.98 
   0   3  -5    2.84    0.89 
   0   3  -5    5.02    0.55 
   0   3  -5    3.65    0.67 
   0   3  -5    3.03    0.69 
   0   3  -5    4.26    0.85 
   0   3  -5    3.38    0.78 
   0   3  -5    4.82    0.80 
   0   3  -5    4.29    0.80 
   0   3  -6   13.58    0.98 
   0   3  -6    9.45    0.84 
   0   3  -6    9.85    0.90 
   0   3  -6   25.46    1.32 
   0   3  -6   11.50    1.41 
   0   3  -6   11.88    1.13 
   0   3  -6    9.50    1.05 
   0   3  -6   26.63    3.14 
   0   3  -6    8.63    1.31 
   0   3  -6   14.30    0.86 
   0   3  -6    9.91    1.05 
   0   3  -6    8.75    1.23 
   0   3  -6    8.79    1.02 
   0   3  -6    9.74    1.13 
   0   3  -7    4.85    1.34 
   0   3  -7    7.58    0.94 
   0   3  -7    5.27    0.90 
   0   3  -7    5.21    0.93 
   0   3  -7   58.87    1.79 
   0   3  -7    5.90    1.37 
   0   3  -7    5.48    1.28 
   0   3  -7   53.16    3.51 
   0   3  -7   -0.04    1.11 
   0   3  -7    5.91    1.24 
   0   3  -7    9.53    0.82 
   0   3  -7    5.27    0.97 
   0   3  -7    4.63    0.91 
   0   3  -7    5.86    1.08 
   0   3  -8   11.51    1.27 
   0   3  -8   13.60    1.47 
   0   3  -8   82.66    1.55 
   0   3  -8   82.24    1.54 
   0   3  -8   11.78    1.68 
   0   3  -8   22.10    1.29 
   0   3  -8   10.63    1.26 
   0   3  -8   10.28    1.58 
   0   3  -8   12.37    1.19 
   0   3  -8   14.88    1.26 
   0   3  -8   73.94    1.94 
   0   3  -9    4.40    1.37 
   0   3  -9    0.93    1.52 
   0   3  -9    2.60    1.16 
   0   3  -9    3.44    1.00 
   0   3  -9    4.23    1.07 
   0   3 -10    0.30    1.09 
   0   3 -10    0.98    1.42 
   0   3 -10    1.89    0.99 
   0   3 -10    1.39    0.68 
   0   3 -11    5.86    0.85 
   0   3 -11    6.32    0.90 
   0   3 -11    7.19    1.02 
   0   3 -11    5.21    0.97 
   0   3 -12   -0.21    1.00 
   0   2  12    3.28    0.42 
   0   2  12    0.16    0.63 
   0   2  11    0.44    0.35 
   0   2  11    0.58    0.35 
   0   2  11    0.28    0.88 
   0   2  11    1.02    0.65 
   0   2  11    1.05    0.54 
   0   2  10    7.60    1.15 
   0   2  10    6.73    0.53 
   0   2  10    4.88    0.44 
   0   2  10    6.89    0.54 
   0   2  10    4.38    0.76 
   0   2  10    7.16    0.47 
   0   2  10    5.19    0.65 
   0   2  10    5.59    0.66 
   0   2  10    0.72    1.13 
   0   2  10    7.54    0.89 
   0   2  10    3.31    0.80 
   0   2  10    6.78    0.76 
   0   2   9    1.92    1.07 
   0   2   9    1.24    0.43 
   0   2   9    1.98    0.50 
   0   2   9    1.54    0.49 
   0   2   9    1.18    0.64 
   0   2   9    1.15    0.46 
   0   2   9    1.17    0.46 
   0   2   9    1.20    0.51 
   0   2   9    0.78    0.49 
   0   2   9    1.50    0.40 
   0   2   9    1.71    0.64 
   0   2   9    0.80    1.09 
   0   2   9    1.90    0.82 
   0   2   8   24.23    1.50 
   0   2   8   19.18    1.13 
   0   2   8   18.59    1.27 
   0   2   8   26.40    1.80 
   0   2   8   18.74    0.80 
   0   2   8   16.42    0.68 
   0   2   8   19.24    0.81 
   0   2   8   16.34    1.14 
   0   2   8   19.78    0.68 
   0   2   8   11.29    0.92 
   0   2   8   12.66    0.96 
   0   2   8   12.84    0.97 
   0   2   8   12.73    0.96 
   0   2   8   16.05    0.94 
   0   2   8   14.04    0.80 
   0   2   8   14.19    0.92 
   0   2   7    3.33    0.53 
   0   2   7    4.44    0.57 
   0   2   7    5.00    0.93 
   0   2   7    4.25    0.69 
   0   2   7    3.36    0.46 
   0   2   7    5.33    0.79 
   0   2   7    6.24    0.99 
   0   2   7    5.32    0.48 
   0   2   7    4.37    0.44 
   0   2   7    5.14    0.48 
   0   2   7    4.81    0.36 
   0   2   7    4.90    0.35 
   0   2   7    4.67    0.37 
   0   2   7    5.06    0.40 
   0   2   7    2.62    0.55 
   0   2   7    2.40    0.53 
   0   2   7    3.34    0.55 
   0   2   7    2.89    0.53 
   0   2   7    4.89    0.70 
   0   2   7    2.95    0.49 
   0   2   6  129.21    2.80 
   0   2   6  167.62    3.34 
   0   2   6  123.29    2.73 
   0   2   6  149.42    3.23 
   0   2   6  140.18    2.49 
   0   2   6  139.09    2.36 
   0   2   6  138.84    2.49 
   0   2   6  138.56    2.39 
   0   2   6  138.01    2.39 
   0   2   6  138.79    2.38 
   0   2   6  142.60    2.33 
   0   2   6  115.64    2.84 
   0   2   6  112.43    2.83 
   0   2   6  110.27    2.86 
   0   2   6  108.43    2.84 
   0   2   6  117.28    2.74 
   0   2   6  134.71    3.05 
   0   2   6  132.83    2.96 
   0   2   6  123.40    2.95 
   0   2   5    4.12    0.46 
   0   2   5    2.94    0.28 
   0   2   5    5.85    0.74 
   0   2   5    4.00    0.48 
   0   2   5    5.27    0.63 
   0   2   5    4.78    0.41 
   0   2   5    4.64    0.42 
   0   2   5    4.86    0.31 
   0   2   5    4.54    0.30 
   0   2   5    5.21    0.33 
   0   2   5    5.25    0.30 
   0   2   5    3.95    0.48 
   0   2   5    3.91    0.48 
   0   2   5    4.55    0.60 
   0   2   5    4.72    0.54 
   0   2   5    4.28    0.47 
   0   2   5    4.42    0.57 
   0   2   4    9.31    0.66 
   0   2   4    6.84    0.45 
   0   2   4    8.02    0.31 
   0   2   4    7.89    0.31 
   0   2   4    7.73    0.31 
   0   2   4    6.29    0.36 
   0   2   4    6.70    0.50 
   0   2   4    6.67    0.46 
   0   2   4    6.58    0.46 
   0   2   4    7.34    0.57 
   0   2   4    7.54    0.53 
   0   2   4    4.92    0.53 
   0   2   4    6.50    0.46 
   0   2   4    8.26    0.58 
   0   2   3   69.77    1.52 
   0   2   3   66.57    1.44 
   0   2   3   78.26    1.60 
   0   2   3   66.85    1.54 
   0   2   3   74.30    1.55 
   0   2   3   60.18    1.29 
   0   2   3   68.31    1.52 
   0   2   3   66.35    1.45 
   0   2   3   68.39    1.46 
   0   2   3   72.26    1.36 
   0   2   3   72.02    1.55 
   0   2   2  116.55    2.02 
   0   2   2  114.88    2.01 
   0   2   2  105.83    2.18 
   0   2   2  116.65    2.15 
   0   2   2   98.34    1.86 
   0   2   2   86.25    2.08 
   0   2   2  103.43    2.06 
   0   2   2  118.27    2.04 
   0   2   2  103.40    1.82 
   0   2   2  110.49    2.02 
   0   2   1  293.23    3.63 
   0   2   1  292.06    3.64 
   0   2   1  258.64    3.88 
   0   2   1  200.45    3.34 
   0   2   1  286.06    3.85 
   0   2   1  169.98    3.30 
   0   2   1  241.28    3.55 
   0   2   1  244.39    3.76 
   0   2   0  423.43    6.60 
   0   2   0  412.15    6.94 
   0   2   0  403.23    6.65 
   0   2  -1    0.03    0.14 
   0   2  -1    0.02    0.39 
   0   2  -1   -0.07    0.53 
   0   2  -1   -0.04    0.19 
   0   2  -1    0.40    0.36 
   0   2  -1    0.14    0.42 
   0   2  -2   29.71    1.12 
   0   2  -2   37.01    0.78 
   0   2  -2   33.50    1.00 
   0   2  -2   32.89    1.16 
   0   2  -2   32.54    0.99 
   0   2  -2   28.00    1.11 
   0   2  -3  142.42    2.44 
   0   2  -3  143.48    2.41 
   0   2  -3  112.39    2.85 
   0   2  -3  121.88    2.65 
   0   2  -3  133.50    2.79 
   0   2  -3  118.63    2.62 
   0   2  -3  111.10    2.87 
   0   2  -4    0.30    0.38 
   0   2  -4    0.28    0.60 
   0   2  -4    0.40    0.63 
   0   2  -4   -0.08    0.64 
   0   2  -4    0.57    0.77 
   0   2  -4    0.07    0.59 
   0   2  -4   -0.18    0.56 
   0   2  -4   -0.19    0.56 
   0   2  -4   -0.03    0.55 
   0   2  -4    0.10    0.74 
   0   2  -5    0.04    0.80 
   0   2  -5    0.18    0.83 
   0   2  -5    0.21    0.62 
   0   2  -5   -0.34    0.64 
   0   2  -5    0.13    0.65 
   0   2  -5    0.52    0.61 
   0   2  -5    0.23    0.44 
   0   2  -5    0.07    0.60 
   0   2  -5    0.23    0.45 
   0   2  -5    0.32    0.57 
   0   2  -5   -0.14    0.57 
   0   2  -5    0.26    0.43 
   0   2  -5    0.30    0.54 
   0   2  -5    0.38    0.59 
   0   2  -6    7.95    0.68 
   0   2  -6    7.70    0.73 
   0   2  -6    7.87    1.10 
   0   2  -6    7.63    0.85 
   0   2  -6    5.87    0.82 
   0   2  -6    9.54    1.04 
   0   2  -6    9.02    0.87 
   0   2  -6   10.51    0.73 
   0   2  -6    7.53    0.85 
   0   2  -6    7.21    1.11 
   0   2  -6    6.78    0.66 
   0   2  -6    6.11    0.65 
   0   2  -6    8.64    0.85 
   0   2  -6    8.88    0.87 
   0   2  -7   20.49    1.38 
   0   2  -7   19.25    1.23 
   0   2  -7   20.05    1.55 
   0   2  -7   17.28    1.22 
   0   2  -7   14.98    1.45 
   0   2  -7   19.43    1.01 
   0   2  -7   18.38    1.03 
   0   2  -7   16.29    1.53 
   0   2  -8    0.34    0.73 
   0   2  -8    0.73    0.83 
   0   2  -8    0.79    0.74 
   0   2  -8    0.41    1.02 
   0   2  -8    1.32    0.94 
   0   2  -8    0.94    0.68 
   0   2  -8    0.28    1.16 
   0   2  -8    0.77    0.80 
   0   2  -8    1.33    0.88 
   0   2  -9   -0.14    0.92 
   0   2  -9    0.94    1.00 
   0   2  -9    0.34    0.80 
   0   2  -9    0.81    0.98 
   0   2  -9    2.81    1.31 
   0   2  -9    0.29    1.10 
   0   2  -9    0.75    1.01 
   0   2  -9    0.42    1.20 
   0   2 -10    1.14    1.01 
   0   2 -10   -0.57    1.10 
   0   2 -10    2.12    1.12 
   0   2 -10    0.37    1.25 
   0   2 -10    1.28    1.14 
   0   2 -11   -0.42    0.93 
   0   2 -11   -0.30    1.01 
   0   2 -12    0.40    1.55 
   0   1  12    0.01    0.38 
   0   1  12    0.23    0.64 
   0   1  12    0.26    0.46 
   0   1  11    5.58    0.59 
   0   1  11    5.40    0.58 
   0   1  11    6.62    0.44 
   0   1  11    6.41    0.78 
   0   1  10    6.66    1.21 
   0   1  10    3.33    0.49 
   0   1  10    4.67    0.67 
   0   1  10    4.26    0.81 
   0   1  10    6.20    0.48 
   0   1  10    3.96    0.61 
   0   1  10    4.91    0.64 
   0   1  10    4.99    0.57 
   0   1  10    5.90    0.73 
   0   1  10    0.32    1.12 
   0   1  10    3.08    0.83 
   0   1   9   -0.71    1.07 
   0   1   9   -0.53    0.79 
   0   1   9    0.14    0.47 
   0   1   9   -0.03    1.06 
   0   1   9    0.29    0.48 
   0   1   9    0.30    0.45 
   0   1   9    0.64    0.43 
   0   1   9    0.54    0.42 
   0   1   9   -0.03    0.34 
   0   1   9    0.03    0.38 
   0   1   9   -0.05    0.36 
   0   1   9   -0.06    0.49 
   0   1   9    0.47    0.39 
   0   1   9    0.02    0.51 
   0   1   9    0.13    0.63 
   0   1   9   -0.02    0.50 
   0   1   9    0.68    0.59 
   0   1   8   50.62    1.52 
   0   1   8   46.89    1.30 
   0   1   8   41.60    1.56 
   0   1   8   41.80    1.55 
   0   1   8   63.29    2.15 
   0   1   8   49.76    1.66 
   0   1   8   54.56    1.91 
   0   1   8   81.26    2.75 
   0   1   8   44.53    1.67 
   0   1   8   54.48    1.25 
   0   1   8   55.37    1.25 
   0   1   8   51.53    1.16 
   0   1   8   44.53    1.08 
   0   1   8   44.32    1.06 
   0   1   8   30.73    1.15 
   0   1   8   57.56    1.16 
   0   1   8   50.99    1.85 
   0   1   8   45.17    1.75 
   0   1   8   39.96    1.59 
   0   1   7    0.37    0.42 
   0   1   7    0.60    0.42 
   0   1   7    1.32    0.77 
   0   1   7    1.02    0.59 
   0   1   7    0.57    0.51 
   0   1   7    1.21    0.77 
   0   1   7    0.96    0.48 
   0   1   7    0.99    0.37 
   0   1   7    0.58    0.35 
   0   1   7    0.68    0.35 
   0   1   7    0.43    0.28 
   0   1   7    0.57    0.28 
   0   1   7    0.88    0.24 
   0   1   7    0.86    0.24 
   0   1   7    0.82    0.26 
   0   1   7    0.89    0.32 
   0   1   7    0.76    0.37 
   0   1   7    0.48    0.37 
   0   1   7    0.62    0.61 
   0   1   7    0.55    0.35 
   0   1   6  121.35    2.55 
   0   1   6  136.90    2.88 
   0   1   6  130.13    2.75 
   0   1   6  126.77    2.18 
   0   1   6  117.94    2.24 
   0   1   6  121.31    2.25 
   0   1   6  117.13    2.13 
   0   1   6  123.25    2.17 
   0   1   6  114.10    2.11 
   0   1   6  132.04    2.16 
   0   1   6  124.17    2.17 
   0   1   6  125.78    2.17 
   0   1   6  118.98    2.52 
   0   1   6  114.81    2.65 
   0   1   6  115.70    2.63 
   0   1   6  129.62    2.79 
   0   1   6  118.77    2.63 
   0   1   5   50.21    1.27 
   0   1   5   62.43    1.61 
   0   1   5   51.49    1.35 
   0   1   5   54.37    1.47 
   0   1   5   48.70    1.05 
   0   1   5   49.61    1.05 
   0   1   5   48.22    0.98 
   0   1   5   49.90    0.98 
   0   1   5   52.65    0.97 
   0   1   5   50.11    0.98 
   0   1   5   51.34    1.32 
   0   1   5   44.89    1.30 
   0   1   5   45.43    1.30 
   0   1   5   54.19    1.45 
   0   1   5   46.55    1.24 
   0   1   4   62.15    1.39 
   0   1   4   57.45    1.03 
   0   1   4   58.80    1.02 
   0   1   4   66.77    1.48 
   0   1   4   61.10    1.44 
   0   1   4   60.86    1.32 
   0   1   4   63.52    1.33 
   0   1   4   62.55    1.33 
   0   1   4   59.17    1.36 
   0   1   4   57.11    1.34 
   0   1   3  126.67    2.15 
   0   1   3  126.68    2.07 
   0   1   3  129.80    2.12 
   0   1   3  131.97    2.20 
   0   1   3  122.92    2.21 
   0   1   2    4.47    0.26 
   0   1   2    3.49    0.19 
   0   1   2    4.39    0.26 
   0   1   2    3.61    0.27 
   0   1   1  305.44    4.73 
   0   1   1  299.37    4.76 
   0   1   0  213.93    3.46 
   0   1  -1  602.84    8.72 
   0   1  -1  484.31    8.39 
   0   1  -2    1.21    0.26 
   0   1  -2    1.51    0.30 
   0   1  -3   42.80    1.11 
   0   1  -3   41.80    0.91 
   0   1  -4   16.21    0.68 
   0   1  -4   13.51    0.73 
   0   1  -4   15.73    0.68 
   0   1  -4   15.58    0.59 
   0   1  -4   15.75    0.75 
   0   1  -5   53.69    1.31 
   0   1  -5   54.37    1.31 
   0   1  -5   51.36    1.60 
   0   1  -5   58.32    1.55 
   0   1  -5   48.81    1.55 
   0   1  -5   56.76    1.55 
   0   1  -5   58.22    1.56 
   0   1  -5   58.22    1.48 
   0   1  -5   59.96    1.38 
   0   1  -5   61.87    1.70 
   0   1  -6   34.39    1.09 
   0   1  -6   34.22    1.07 
   0   1  -6   30.05    1.30 
   0   1  -6   39.42    1.39 
   0   1  -6   31.17    1.33 
   0   1  -6   33.65    1.62 
   0   1  -6   31.92    1.31 
   0   1  -6   33.18    1.33 
   0   1  -6   35.95    1.24 
   0   1  -6   38.18    1.16 
   0   1  -6   38.12    1.47 
   0   1  -7    3.16    0.77 
   0   1  -7    3.45    0.77 
   0   1  -7    4.60    0.86 
   0   1  -7    3.10    0.75 
   0   1  -7    3.67    0.67 
   0   1  -7    3.94    0.79 
   0   1  -7    3.92    0.73 
   0   1  -7    2.96    0.76 
   0   1  -7    3.50    1.02 
   0   1  -7    3.97    0.66 
   0   1  -7    4.27    0.84 
   0   1  -7    4.58    0.66 
   0   1  -7    3.83    0.69 
   0   1  -8    7.62    0.92 
   0   1  -8    6.98    0.85 
   0   1  -8    6.87    1.03 
   0   1  -8    7.96    1.36 
   0   1  -8    5.91    1.00 
   0   1  -8    9.00    1.16 
   0   1  -8    5.76    0.93 
   0   1  -8    7.85    1.06 
   0   1  -8    5.50    0.90 
   0   1  -8    6.89    1.26 
   0   1  -8    7.13    1.10 
   0   1  -8    3.26    1.08 
   0   1  -8    1.92    1.04 
   0   1  -9    9.03    1.44 
   0   1  -9    7.04    1.39 
   0   1  -9    4.33    0.95 
   0   1  -9    3.90    0.99 
   0   1  -9    3.35    1.28 
   0   1  -9    3.35    1.21 
   0   1  -9    0.89    1.08 
   0   1  -9    1.27    1.19 
   0   1  -9    2.70    0.92 
   0   1  -9    2.65    0.84 
   0   1  -9    2.17    0.86 
   0   1  -9    3.90    1.16 
   0   1 -10    8.44    1.15 
   0   1 -10    6.12    1.05 
   0   1 -10    9.98    1.48 
   0   1 -10    3.41    1.37 
   0   1 -10    9.95    1.54 
   0   1 -10    7.17    1.42 
   0   1 -10    3.17    1.20 
   0   1 -10    6.40    1.40 
   0   1 -11    4.01    1.01 
   0   1 -11    5.20    1.11 
   0   1 -12    0.46    1.25 
   0   1 -12    1.57    1.94 
   0   0  12    0.03    0.66 
   0   0  12    0.86    0.47 
   0   0  12    0.07    0.25 
   0   0  12    0.26    0.24 
   0   0  11    0.42    0.34 
   0   0  11   -0.02    0.90 
   0   0  11    0.82    0.66 
   0   0  11    0.36    0.40 
   0   0  10    0.24    1.07 
   0   0  10    3.84    0.87 
   0   0  10    4.11    0.43 
   0   0  10    4.26    0.42 
   0   0  10    8.05    0.51 
   0   0  10    7.41    0.61 
   0   0  10    6.52    0.91 
   0   0  10    7.09    0.72 
   0   0  10    4.83    0.69 
   0   0  10    4.84    0.53 
   0   0   9   12.74    1.01 
   0   0   9   13.78    0.68 
   0   0   9   11.93    0.56 
   0   0   9   11.44    0.58 
   0   0   9    6.62    1.27 
   0   0   9    9.17    1.00 
   0   0   9   15.82    1.04 
   0   0   9   15.02    0.78 
   0   0   8    8.39    0.61 
   0   0   8    7.34    1.17 
   0   0   8    4.63    0.83 
   0   0   8    8.62    0.87 
   0   0   8   10.47    0.54 
   0   0   8    8.81    0.54 
   0   0   8   10.38    0.55 
   0   0   8    8.94    0.49 
   0   0   8    9.34    0.51 
   0   0   8    7.69    0.76 
   0   0   8    7.89    0.62 
   0   0   8    7.80    0.61 
   0   0   8    9.36    0.81 
   0   0   8    8.56    0.72 
   0   0   7  129.09    2.90 
   0   0   7  122.03    2.84 
   0   0   7  123.84    2.24 
   0   0   7  121.47    2.19 
   0   0   7  126.37    2.25 
   0   0   7  113.63    2.16 
   0   0   7  113.61    2.15 
   0   0   7  125.91    2.17 
   0   0   7  111.67    2.68 
   0   0   7  112.53    2.61 
   0   0   7  112.46    2.59 
   0   0   7  121.05    2.84 
   0   0   7  119.03    2.70 
   0   0   6  124.77    2.68 
   0   0   6  133.22    2.75 
   0   0   6  119.45    2.19 
   0   0   6  123.37    2.14 
   0   0   6  122.44    2.20 
   0   0   6  121.99    2.13 
   0   0   6  119.56    2.12 
   0   0   6  125.19    2.13 
   0   0   6  121.26    2.58 
   0   0   6  114.75    2.61 
   0   0   6  116.60    2.53 
   0   0   6  116.49    2.51 
   0   0   6  116.96    2.61 
   0   0   6  121.09    2.70 
   0   0   6  120.13    2.59 
   0   0   5   87.04    1.89 
   0   0   5   83.88    1.91 
   0   0   5   80.78    1.46 
   0   0   5   82.92    1.90 
   0   0   5   83.39    1.44 
   0   0   5   78.73    1.44 
   0   0   5   80.43    1.44 
   0   0   5   83.25    1.83 
   0   0   5   78.73    1.84 
   0   0   5   75.99    1.74 
   0   0   5   74.54    1.72 
   0   0   5   81.62    1.84 
   0   0   5   81.74    1.80 
   0   0   5   80.46    1.82 
   0   0   5   80.64    1.74 
   0   0   4  437.02    7.12 
   0   0   4  408.09    6.78 
   0   0   4  426.62    7.14 
   0   0   4  427.26    7.09 
   0   0   4  428.18    7.08 
   0   0   4  428.75    7.12 
   0   0   4  431.39    7.09 
   0   0   4  455.77    7.08 
   0   0   4  441.04    7.13 
   0   0   4  449.78    7.19 
   0   0   3  253.67    3.92 
   0   0   3  244.01    3.92 
   0   0   3  250.71    3.94 
   0   0   3  247.51    3.89 
   0   0   3  243.25    3.88 
   0   0   3  254.12    3.91 
   0   0   3  256.91    3.88 
   0   0   2 1223.09   18.43 
   0   0   2 1231.44   18.43 
   0   0   2 1210.86   18.42 
   0   0   2 1139.82   18.26 
   0   0   2 1159.81   18.42 
   0   0   1  140.48    2.18 
   0   0   1  126.89    2.17 
   0   0  -1  113.05    1.93 
   0   0  -1  117.36    1.96 
   0   0  -2 1114.32   16.65 
   0   0  -2 1172.40   16.65 
   0   0  -3  242.89    4.15 
   0   0  -3  246.50    4.15 
   0   0  -3  215.27    4.05 
   0   0  -3  219.40    3.95 
   0   0  -3  261.98    4.11 
   0   0  -3  257.80    4.20 
   0   0  -3  273.41    4.21 
   0   0  -3  261.10    4.08 
   0   0  -3  242.25    4.06 
   0   0  -4  441.56    7.32 
   0   0  -4  445.93    7.33 
   0   0  -4  400.56    7.20 
   0   0  -4  394.99    7.03 
   0   0  -4  472.85    7.28 
   0   0  -4  466.70    7.21 
   0   0  -4  439.25    7.21 
   0   0  -4  467.88    7.39 
   0   0  -4  437.98    7.35 
   0   0  -5   87.32    2.05 
   0   0  -5   82.41    1.97 
   0   0  -5   85.61    2.04 
   0   0  -5   95.89    2.04 
   0   0  -5   78.79    1.71 
   0   0  -5   88.11    2.12 
   0   0  -5   87.62    1.92 
   0   0  -5   82.77    2.07 
   0   0  -5   88.64    1.89 
   0   0  -6  132.09    3.10 
   0   0  -6  139.27    2.80 
   0   0  -6  128.19    3.06 
   0   0  -6  133.20    2.54 
   0   0  -6  133.50    2.53 
   0   0  -6  151.41    3.34 
   0   0  -6  131.72    2.97 
   0   0  -6  136.33    2.96 
   0   0  -6  139.17    3.20 
   0   0  -6  120.09    2.43 
   0   0  -6  120.73    2.42 
   0   0  -6  124.68    2.51 
   0   0  -6  132.51    2.97 
   0   0  -6  148.32    3.02 
   0   0  -6  125.08    2.58 
   0   0  -7  131.20    3.46 
   0   0  -7  131.87    2.97 
   0   0  -7  120.85    3.36 
   0   0  -7  136.49    2.68 
   0   0  -7  132.66    2.67 
   0   0  -7  144.13    3.62 
   0   0  -7  131.62    3.24 
   0   0  -7  143.11    3.30 
   0   0  -7  135.01    3.52 
   0   0  -7  118.90    2.57 
   0   0  -7  127.74    2.58 
   0   0  -7  133.77    3.26 
   0   0  -7  117.03    2.63 
   0   0  -7  153.64    3.44 
   0   0  -8    8.40    0.80 
   0   0  -8   10.79    0.95 
   0   0  -8   11.07    0.91 
   0   0  -8    9.89    1.08 
   0   0  -8   10.11    1.34 
   0   0  -8   12.16    1.28 
   0   0  -8    6.98    1.22 
   0   0  -8   10.34    1.09 
   0   0  -8    8.09    1.26 
   0   0  -8   10.24    0.95 
   0   0  -8    9.23    1.31 
   0   0  -8   10.89    1.13 
   0   0  -9    5.74    1.35 
   0   0  -9    3.27    1.22 
   0   0  -9   18.45    1.20 
   0   0  -9   16.65    1.13 
   0   0  -9   16.04    1.43 
   0   0  -9   15.32    1.68 
   0   0  -9   21.09    1.76 
   0   0  -9   15.49    1.39 
   0   0  -9   15.25    1.42 
   0   0  -9    9.30    1.48 
   0   0  -9   19.66    1.61 
   0   0 -10    8.65    1.07 
   0   0 -10   10.29    1.17 
   0   0 -10   11.22    1.60 
   0   0 -10    3.33    1.17 
   0   0 -10    6.43    1.46 
   0   0 -10    2.36    1.30 
   0   0 -10   17.35    1.73 
   0   0 -10   13.89    1.67 
   0   0 -11    0.02    1.24 
   0   0 -11    0.13    1.22 
   0   0 -11    0.73    0.94 
   0   0 -11    1.18    1.03 
   0   0 -11    0.45    1.13 
   0   0 -12   -0.19    0.93 
   0   0 -12    0.13    0.97 
   0  -1  12    1.12    0.25 
   0  -1  12    0.73    0.26 
   0  -1  11    3.41    0.49 
   0  -1  11    3.32    0.49 
   0  -1  11    4.75    0.50 
   0  -1  11    1.40    0.39 
   0  -1  11    3.59    0.41 
   0  -1  11    2.48    0.36 
   0  -1  11    1.97    0.38 
   0  -1  10    5.71    0.63 
   0  -1  10    4.26    0.57 
   0  -1  10    4.47    0.46 
   0  -1  10    3.45    0.46 
   0  -1  10    6.26    0.60 
   0  -1  10    4.62    0.71 
   0  -1   9    2.31    1.02 
   0  -1   9    3.07    0.69 
   0  -1   9    2.31    0.75 
   0  -1   9    2.90    0.56 
   0  -1   9    2.57    0.42 
   0  -1   9    2.16    0.43 
   0  -1   9    2.93    0.54 
   0  -1   9    2.49    0.61 
   0  -1   8    6.78    0.85 
   0  -1   8    7.11    0.70 
   0  -1   8    7.15    0.49 
   0  -1   8    5.76    0.48 
   0  -1   8    5.29    0.49 
   0  -1   8    5.90    0.66 
   0  -1   8    6.30    0.71 
   0  -1   8    6.69    0.59 
   0  -1   8    8.91    1.24 
   0  -1   8    6.04    0.83 
   0  -1   7    3.31    0.36 
   0  -1   7    3.67    0.36 
   0  -1   7    4.22    0.36 
   0  -1   7    3.50    0.62 
   0  -1   7    2.95    0.52 
   0  -1   7    3.53    0.39 
   0  -1   7    3.76    0.39 
   0  -1   7    4.32    0.59 
   0  -1   7    4.16    0.67 
   0  -1   7    4.00    0.57 
   0  -1   6   33.91    1.19 
   0  -1   6   33.36    0.81 
   0  -1   6   31.88    0.81 
   0  -1   6   35.88    0.80 
   0  -1   6   34.59    0.78 
   0  -1   6   34.91    0.76 
   0  -1   6   30.26    0.64 
   0  -1   6   30.54    0.97 
   0  -1   6   34.61    1.18 
   0  -1   6   31.11    0.97 
   0  -1   6   33.00    1.16 
   0  -1   6   32.72    1.19 
   0  -1   6   35.78    1.21 
   0  -1   5   53.27    1.40 
   0  -1   5   61.89    1.52 
   0  -1   5   54.66    1.03 
   0  -1   5   53.85    1.02 
   0  -1   5   53.18    1.00 
   0  -1   5   47.22    0.92 
   0  -1   5   55.56    1.43 
   0  -1   5   56.16    1.46 
   0  -1   5   53.59    1.26 
   0  -1   5   54.88    1.27 
   0  -1   5   65.82    1.67 
   0  -1   5   51.29    1.34 
   0  -1   4   14.71    0.63 
   0  -1   4   15.97    0.69 
   0  -1   4   14.77    0.39 
   0  -1   4   14.68    0.58 
   0  -1   4   14.61    0.61 
   0  -1   4   15.21    0.65 
   0  -1   4   17.33    0.79 
   0  -1   4   15.25    0.66 
   0  -1   4   14.04    0.54 
   0  -1   4   16.65    0.64 
   0  -1   4   14.62    0.53 
   0  -1   3   37.74    0.93 
   0  -1   3   40.10    0.97 
   0  -1   3   41.26    1.04 
   0  -1   3   43.62    1.06 
   0  -1   3   45.29    1.02 
   0  -1   3   39.99    0.92 
   0  -1   3   39.62    0.91 
   0  -1   2    1.60    0.28 
   0  -1   2    1.61    0.22 
   0  -1   2    1.67    0.19 
   0  -1   2    1.51    0.18 
   0  -1   2    1.37    0.20 
   0  -1   2    1.59    0.24 
   0  -1   2    1.53    0.21 
   0  -1   1  743.79   10.54 
   0  -1   1  759.10   10.55 
   0  -1   0  245.43    3.87 
   0  -1   0  234.24    3.83 
   0  -1  -1  320.34    5.09 
   0  -1  -2    4.98    0.23 
   0  -1  -2    4.86    0.26 
   0  -1  -3  127.53    2.30 
   0  -1  -3  126.53    2.30 
   0  -1  -3  131.82    2.23 
   0  -1  -3  128.13    2.19 
   0  -1  -3  134.37    2.27 
   0  -1  -4   65.23    1.51 
   0  -1  -4   53.44    1.38 
   0  -1  -4   61.21    1.66 
   0  -1  -4   66.61    1.51 
   0  -1  -4   57.05    1.28 
   0  -1  -4   65.47    1.39 
   0  -1  -4   66.60    1.36 
   0  -1  -4   67.35    1.42 
   0  -1  -4   63.23    1.65 
   0  -1  -4   58.57    1.63 
   0  -1  -5   54.30    1.52 
   0  -1  -5   46.83    1.42 
   0  -1  -5   53.29    1.74 
   0  -1  -5   47.12    1.23 
   0  -1  -5   55.12    1.52 
   0  -1  -5   56.12    1.25 
   0  -1  -5   53.45    1.73 
   0  -1  -5   57.49    1.40 
   0  -1  -5   57.64    1.40 
   0  -1  -5   48.31    1.68 
   0  -1  -5   54.81    1.40 
   0  -1  -6  144.76    2.97 
   0  -1  -6  144.34    3.11 
   0  -1  -6  123.38    2.93 
   0  -1  -6  128.10    3.35 
   0  -1  -6  133.47    2.51 
   0  -1  -6  129.32    2.51 
   0  -1  -6  134.30    2.62 
   0  -1  -6  140.73    3.09 
   0  -1  -6  147.47    2.93 
   0  -1  -6  121.67    3.29 
   0  -1  -6  141.63    2.88 
   0  -1  -6  122.33    3.28 
   0  -1  -7    1.34    0.82 
   0  -1  -7    0.58    0.67 
   0  -1  -7    0.64    0.66 
   0  -1  -7    0.20    0.92 
   0  -1  -7    0.84    0.76 
   0  -1  -7    1.12    0.45 
   0  -1  -7    0.49    0.43 
   0  -1  -7    1.18    0.51 
   0  -1  -7    0.90    0.56 
   0  -1  -7    0.58    0.60 
   0  -1  -7   -0.28    0.95 
   0  -1  -7    0.63    1.04 
   0  -1  -7    1.02    0.52 
   0  -1  -8   62.27    2.01 
   0  -1  -8   44.42    2.58 
   0  -1  -8   49.87    2.69 
   0  -1  -8   61.32    1.74 
   0  -1  -8   60.35    1.70 
   0  -1  -8   57.51    2.51 
   0  -1  -8   59.83    2.22 
   0  -1  -8   59.95    2.39 
   0  -1  -8   51.69    2.76 
   0  -1  -8   52.21    1.54 
   0  -1  -8   53.50    1.53 
   0  -1  -8   58.75    1.71 
   0  -1  -8   58.48    2.22 
   0  -1  -8   63.91    2.23 
   0  -1  -9   -0.05    0.75 
   0  -1  -9    0.91    0.89 
   0  -1  -9    0.50    0.94 
   0  -1  -9   -0.62    1.10 
   0  -1  -9    0.35    0.89 
   0  -1  -9    0.77    0.88 
   0  -1  -9    0.09    1.30 
   0  -1  -9   -0.42    1.14 
   0  -1  -9    0.64    0.63 
   0  -1  -9    0.44    0.65 
   0  -1  -9    0.24    0.83 
   0  -1  -9    1.56    1.29 
   0  -1  -9    0.80    0.76 
   0  -1  -9    1.21    1.24 
   0  -1 -10    4.48    0.91 
   0  -1 -10    5.96    1.47 
   0  -1 -10    4.19    1.48 
   0  -1 -10    0.83    1.21 
   0  -1 -10    3.99    1.29 
   0  -1 -10    5.81    1.19 
   0  -1 -10    5.48    1.19 
   0  -1 -10    5.25    1.04 
   0  -1 -10    6.10    1.12 
   0  -1 -11    5.04    1.51 
   0  -1 -11    2.19    1.48 
   0  -1 -11    0.45    2.55 
   0  -1 -11    7.97    1.07 
   0  -1 -11    7.79    1.15 
   0  -1 -12    0.53    0.90 
   0  -1 -12    0.24    0.93 
   0  -2  12    0.62    0.31 
   0  -2  12    0.56    0.24 
   0  -2  11    0.23    0.39 
   0  -2  11    0.10    0.31 
   0  -2  11    0.24    0.31 
   0  -2  11    0.21    0.31 
   0  -2  11    0.04    0.31 
   0  -2  11    0.15    0.32 
   0  -2  11    0.16    0.36 
   0  -2  11    0.26    0.43 
   0  -2  10    2.50    0.45 
   0  -2  10    1.47    0.38 
   0  -2  10    1.29    0.42 
   0  -2  10    2.39    0.51 
   0  -2  10    1.43    0.52 
   0  -2  10    2.03    0.41 
   0  -2  10    2.30    0.40 
   0  -2  10    1.67    0.59 
   0  -2  10    2.94    0.58 
   0  -2   9    0.46    0.50 
   0  -2   9    0.17    0.58 
   0  -2   9    0.33    0.49 
   0  -2   9    0.60    0.39 
   0  -2   9    0.80    0.41 
   0  -2   9    0.43    0.53 
   0  -2   9    0.62    0.41 
   0  -2   9   -0.08    0.63 
   0  -2   9   -0.03    0.43 
   0  -2   9    0.01    0.59 
   0  -2   8    1.06    0.56 
   0  -2   8    1.09    0.48 
   0  -2   8    0.84    0.48 
   0  -2   8    0.84    0.46 
   0  -2   8    0.91    0.44 
   0  -2   8    1.43    0.38 
   0  -2   8    1.39    0.41 
   0  -2   8    0.82    0.44 
   0  -2   8    0.42    0.62 
   0  -2   8    0.96    0.93 
   0  -2   7   18.46    1.41 
   0  -2   7   15.98    0.90 
   0  -2   7   20.11    0.67 
   0  -2   7   18.04    0.52 
   0  -2   7   20.94    0.64 
   0  -2   7   17.71    0.46 
   0  -2   7   21.34    1.04 
   0  -2   7   22.40    1.06 
   0  -2   7   19.74    1.03 
   0  -2   7   18.21    1.04 
   0  -2   7   21.65    1.01 
   0  -2   7   19.38    0.93 
   0  -2   6    8.66    0.65 
   0  -2   6    7.41    0.45 
   0  -2   6    9.77    0.71 
   0  -2   6    7.60    0.45 
   0  -2   6    7.68    0.59 
   0  -2   6   10.22    0.44 
   0  -2   6    8.39    0.33 
   0  -2   6   10.32    0.40 
   0  -2   6    8.14    0.28 
   0  -2   6    9.39    0.68 
   0  -2   6    8.56    0.67 
   0  -2   6   10.25    1.02 
   0  -2   6    8.77    0.70 
   0  -2   5    0.06    0.67 
   0  -2   5    0.22    0.39 
   0  -2   5    0.09    0.43 
   0  -2   5    0.79    0.29 
   0  -2   5    0.27    0.17 
   0  -2   5    0.06    0.25 
   0  -2   5    0.09    0.26 
   0  -2   5    0.36    0.16 
   0  -2   5    0.12    0.24 
   0  -2   5    0.60    0.26 
   0  -2   5    0.31    0.23 
   0  -2   5    0.28    0.24 
   0  -2   5    0.24    0.45 
   0  -2   5    0.38    0.43 
   0  -2   5    0.11    0.43 
   0  -2   5    0.27    0.33 
   0  -2   4    0.52    0.47 
   0  -2   4   -0.16    0.41 
   0  -2   4    0.37    0.42 
   0  -2   4    0.30    0.15 
   0  -2   4    0.25    0.32 
   0  -2   4    0.25    0.36 
   0  -2   4    0.13    0.64 
   0  -2   4    0.24    0.24 
   0  -2   4    0.24    0.25 
   0  -2   4    0.24    0.41 
   0  -2   4    0.19    0.24 
   0  -2   4    0.39    0.24 
   0  -2   3  143.97    2.35 
   0  -2   3  127.92    2.48 
   0  -2   3  120.22    2.34 
   0  -2   3  151.45    2.61 
   0  -2   3  139.51    2.50 
   0  -2   3  113.04    2.24 
   0  -2   3  115.66    2.24 
   0  -2   3  163.01    2.83 
   0  -2   3  119.27    2.35 
   0  -2   3  116.17    2.29 
   0  -2   3  127.97    2.37 
   0  -2   3  123.98    2.32 
   0  -2   3  120.97    2.37 
   0  -2   2   36.13    0.86 
   0  -2   2   32.48    0.92 
   0  -2   2   37.89    0.95 
   0  -2   2   44.72    0.98 
   0  -2   2   32.42    0.86 
   0  -2   2   43.64    1.02 
   0  -2   2   43.46    1.01 
   0  -2   2   32.38    0.82 
   0  -2   2   43.60    1.06 
   0  -2   2   41.02    1.03 
   0  -2   2   38.43    1.00 
   0  -2   1    0.24    0.44 
   0  -2   1    0.09    0.33 
   0  -2   1    0.17    0.33 
   0  -2   1   -0.09    0.37 
   0  -2   1    0.22    0.40 
   0  -2   1   -0.07    0.16 
   0  -2   0  415.57    6.65 
   0  -2   0  429.50    6.49 
   0  -2   0  501.42    6.44 
   0  -2   0  476.19    6.40 
   0  -2  -1  274.28    4.67 
   0  -2  -1  278.37    4.94 
   0  -2  -2  107.55    2.29 
   0  -2  -2  114.72    2.02 
   0  -2  -2  113.20    2.30 
   0  -2  -2  112.53    2.28 
   0  -2  -3   77.93    1.43 
   0  -2  -3   67.89    1.75 
   0  -2  -3   75.29    1.48 
   0  -2  -3   67.95    1.73 
   0  -2  -3   78.32    1.47 
   0  -2  -3   78.30    1.49 
   0  -2  -4    8.32    0.58 
   0  -2  -4    6.37    0.88 
   0  -2  -4    5.54    0.53 
   0  -2  -4    9.05    0.49 
   0  -2  -4    7.87    0.58 
   0  -2  -4    9.13    0.48 
   0  -2  -4    9.46    0.54 
   0  -2  -4    8.05    0.49 
   0  -2  -4    8.94    0.49 
   0  -2  -5    5.27    0.51 
   0  -2  -5    5.44    0.64 
   0  -2  -5    2.67    0.96 
   0  -2  -5    5.14    0.97 
   0  -2  -5    3.26    0.61 
   0  -2  -5    4.72    0.48 
   0  -2  -5    5.71    0.67 
   0  -2  -5    5.77    0.57 
   0  -2  -5    5.46    0.51 
   0  -2  -5    4.53    0.47 
   0  -2  -5    5.92    0.45 
   0  -2  -5    5.90    0.44 
   0  -2  -6  151.63    2.75 
   0  -2  -6  152.61    2.77 
   0  -2  -6  154.29    3.38 
   0  -2  -6  122.46    3.02 
   0  -2  -6  130.00    3.71 
   0  -2  -6  129.63    3.90 
   0  -2  -6  151.98    3.16 
   0  -2  -6  159.37    2.91 
   0  -2  -6  154.41    3.39 
   0  -2  -6  133.02    2.92 
   0  -2  -6  122.60    3.65 
   0  -2  -6  153.57    3.17 
   0  -2  -6  121.75    3.64 
   0  -2  -6  167.48    3.19 
   0  -2  -7    4.97    0.89 
   0  -2  -7    5.06    0.88 
   0  -2  -7    2.62    1.22 
   0  -2  -7    3.71    0.80 
   0  -2  -7    5.22    0.72 
   0  -2  -7    5.41    0.67 
   0  -2  -7    5.64    0.59 
   0  -2  -7    5.38    0.57 
   0  -2  -7    5.35    0.72 
   0  -2  -7    4.86    1.26 
   0  -2  -7    5.12    0.76 
   0  -2  -7    3.95    1.27 
   0  -2  -8   19.19    0.96 
   0  -2  -8   20.15    0.96 
   0  -2  -8   19.29    1.51 
   0  -2  -8   18.09    1.60 
   0  -2  -8   12.97    1.97 
   0  -2  -8   21.47    1.39 
   0  -2  -8   22.86    1.13 
   0  -2  -8   17.81    1.49 
   0  -2  -8   15.11    1.99 
   0  -2  -8   19.32    1.36 
   0  -2  -8   14.55    1.90 
   0  -2  -8   20.64    1.32 
   0  -2  -9    2.20    0.83 
   0  -2  -9    1.15    1.54 
   0  -2  -9    0.43    0.73 
   0  -2  -9    0.24    0.77 
   0  -2  -9    1.17    0.85 
   0  -2  -9    1.82    1.14 
   0  -2  -9    2.01    1.01 
   0  -2  -9    2.22    1.03 
   0  -2  -9    1.92    0.82 
   0  -2 -10    8.17    1.02 
   0  -2 -10    7.23    1.42 
   0  -2 -10    8.31    1.29 
   0  -2 -10    8.31    1.30 
   0  -2 -11    0.25    0.94 
   0  -3  12    0.02    0.45 
   0  -3  12   -0.05    0.28 
   0  -3  11    4.16    0.36 
   0  -3  11    3.83    0.38 
   0  -3  11    3.93    0.36 
   0  -3  11    6.73    0.47 
   0  -3  11    5.43    0.47 
   0  -3  11   -0.14    0.76 
   0  -3  11    0.40    0.59 
   0  -3  10    1.07    0.48 
   0  -3  10    1.36    0.50 
   0  -3  10    0.13    0.32 
   0  -3  10    1.05    0.35 
   0  -3  10    0.31    0.97 
   0  -3  10    0.12    0.71 
   0  -3  10    1.23    0.47 
   0  -3   9    4.73    0.49 
   0  -3   9    4.76    0.59 
   0  -3   9    3.82    0.62 
   0  -3   9    0.31    1.09 
   0  -3   9    0.66    0.88 
   0  -3   9    2.44    0.63 
   0  -3   9    0.49    0.37 
   0  -3   9    3.57    0.41 
   0  -3   8   16.88    0.85 
   0  -3   8   14.62    1.05 
   0  -3   8   14.23    0.66 
   0  -3   8   11.82    0.45 
   0  -3   8   11.99    0.39 
   0  -3   8   13.35    0.62 
   0  -3   8   14.54    0.94 
   0  -3   8   12.84    1.02 
   0  -3   8   12.74    0.79 
   0  -3   8   13.30    0.99 
   0  -3   7    6.65    0.69 
   0  -3   7    7.19    0.69 
   0  -3   7    7.78    0.46 
   0  -3   7    8.14    0.46 
   0  -3   7    5.74    0.32 
   0  -3   7    5.55    0.46 
   0  -3   7    5.76    0.29 
   0  -3   7    5.20    0.48 
   0  -3   7    5.53    0.76 
   0  -3   7    7.10    0.62 
   0  -3   7    6.38    0.74 
   0  -3   6    8.78    0.52 
   0  -3   6   14.75    0.83 
   0  -3   6   12.35    0.81 
   0  -3   6   10.99    0.50 
   0  -3   6   11.72    0.47 
   0  -3   6   11.20    0.40 
   0  -3   6   10.57    0.45 
   0  -3   6   10.90    0.35 
   0  -3   6   11.94    0.49 
   0  -3   6   13.64    0.75 
   0  -3   6   10.29    0.79 
   0  -3   6    9.97    0.78 
   0  -3   5    4.64    0.52 
   0  -3   5    3.73    0.38 
   0  -3   5    4.88    0.58 
   0  -3   5    5.61    0.59 
   0  -3   5    3.57    0.44 
   0  -3   5    3.84    0.26 
   0  -3   5    3.80    0.35 
   0  -3   5    4.13    0.25 
   0  -3   5    4.08    0.30 
   0  -3   5    4.03    0.31 
   0  -3   5    3.86    0.33 
   0  -3   5    4.28    0.22 
   0  -3   5    3.57    0.54 
   0  -3   5    5.25    0.55 
   0  -3   5    4.18    0.52 
   0  -3   4   25.80    0.93 
   0  -3   4   26.98    0.92 
   0  -3   4   25.39    0.86 
   0  -3   4   22.74    0.55 
   0  -3   4   21.88    0.62 
   0  -3   4   23.27    0.56 
   0  -3   4   25.15    0.60 
   0  -3   4   24.51    0.59 
   0  -3   4   25.67    0.62 
   0  -3   4   23.31    0.51 
   0  -3   4   25.06    0.90 
   0  -3   4   22.31    0.76 
   0  -3   4   21.32    0.70 
   0  -3   4   29.75    4.06 
   0  -3   4   34.96    1.13 
   0  -3   4   21.92    0.70 
   0  -3   4   22.63    0.81 
   0  -3   4   23.94    0.91 
   0  -3   4   27.53    0.97 
   0  -3   3   61.38    1.44 
   0  -3   3   63.50    1.46 
   0  -3   3   56.77    1.50 
   0  -3   3   65.23    1.54 
   0  -3   3   67.11    1.52 
   0  -3   3   63.45    1.18 
   0  -3   3   57.18    1.41 
   0  -3   3   50.75    1.30 
   0  -3   3   75.04    1.83 
   0  -3   3   64.14    1.59 
   0  -3   3   72.23    1.70 
   0  -3   3   53.86    1.33 
   0  -3   3   56.82    1.43 
   0  -3   2  420.56    6.21 
   0  -3   2  405.08    6.19 
   0  -3   2  406.96    6.18 
   0  -3   2  301.90    5.52 
   0  -3   2  352.06    5.86 
   0  -3   2  396.38    5.95 
   0  -3   2  381.76    6.03 
   0  -3   2  417.34    6.10 
   0  -3   2  377.83    6.11 
   0  -3   2  407.96    6.36 
   0  -3   2  343.53    6.07 
   0  -3   2  337.26    5.88 
   0  -3   1   28.75    1.13 
   0  -3   1   28.53    1.00 
   0  -3   1   36.62    1.12 
   0  -3   1   30.99    1.05 
   0  -3   1   38.99    1.29 
   0  -3   1   28.51    1.02 
   0  -3   1   20.44    1.05 
   0  -3   1   19.33    1.00 
   0  -3   0  194.11    3.48 
   0  -3   0  240.74    3.75 
   0  -3   0  156.92    3.75 
   0  -3   0  271.03    3.61 
   0  -3   0  262.56    3.57 
   0  -3   0  202.05    3.26 
   0  -3  -1  156.65    3.33 
   0  -3  -1  196.24    3.03 
   0  -3  -1  163.94    3.77 
   0  -3  -1  156.19    3.25 
   0  -3  -1  159.07    3.28 
   0  -3  -1  187.09    2.97 
   0  -3  -2    1.07    0.67 
   0  -3  -2    1.10    0.73 
   0  -3  -2    0.97    0.62 
   0  -3  -2    1.40    0.67 
   0  -3  -2   -0.11    0.27 
   0  -3  -2    0.04    0.25 
   0  -3  -2    0.31    0.64 
   0  -3  -2    0.42    0.67 
   0  -3  -2   -0.01    0.24 
   0  -3  -3   22.55    1.18 
   0  -3  -3   28.45    1.37 
   0  -3  -3   32.46    0.95 
   0  -3  -3   32.12    0.97 
   0  -3  -3   33.46    0.91 
   0  -3  -3   31.56    8.40 
   0  -3  -3   37.79    9.57 
   0  -3  -3   27.40    1.30 
   0  -3  -3   26.84    1.26 
   0  -3  -4  113.75    3.14 
   0  -3  -4  119.25    3.16 
   0  -3  -4  143.41    2.42 
   0  -3  -4   98.30    3.09 
   0  -3  -4  140.24    2.84 
   0  -3  -4  153.38    2.78 
   0  -3  -4  106.97    3.11 
   0  -3  -4  118.83    3.14 
   0  -3  -4  164.29    2.51 
   0  -3  -4  152.73    2.85 
   0  -3  -5   -0.28    0.70 
   0  -3  -5   -0.11    0.32 
   0  -3  -5    0.07    0.26 
   0  -3  -5   -0.06    0.35 
   0  -3  -5   -0.05    0.35 
   0  -3  -5    0.55    0.81 
   0  -3  -5   -0.04    0.36 
   0  -3  -5    0.51    0.85 
   0  -3  -5    0.16    0.41 
   0  -3  -5    0.03    0.25 
   0  -3  -6    0.27    0.50 
   0  -3  -6    0.34    0.51 
   0  -3  -6    0.27    0.44 
   0  -3  -6    0.25    0.42 
   0  -3  -6   -0.02    0.62 
   0  -3  -6    0.68    0.64 
   0  -3  -6    0.04    0.30 
   0  -3  -6    0.50    1.02 
   0  -3  -6   -1.09    1.15 
   0  -3  -6   -0.15    0.42 
   0  -3  -6    0.11    0.41 
   0  -3  -6    0.66    0.54 
   0  -3  -6   -0.18    0.85 
   0  -3  -6   -1.04    0.93 
   0  -3  -6    0.22    0.41 
   0  -3  -7    8.08    0.71 
   0  -3  -7    8.56    0.70 
   0  -3  -7    1.13    1.52 
   0  -3  -7    4.76    1.56 
   0  -3  -7    7.04    0.84 
   0  -3  -7    3.24    1.19 
   0  -3  -7    2.14    1.24 
   0  -3  -7    7.13    1.06 
   0  -3  -7    6.55    1.07 
   0  -3  -7    6.97    0.89 
   0  -3  -7    3.33    1.42 
   0  -3  -7    6.58    0.87 
   0  -3  -7    3.21    1.44 
   0  -3  -7    7.77    0.87 
   0  -3  -8    5.52    0.78 
   0  -3  -8    5.03    0.75 
   0  -3  -8    4.00    1.72 
   0  -3  -8    4.38    1.00 
   0  -3  -8    4.86    0.97 
   0  -3  -8    4.25    0.89 
   0  -3  -8    5.15    0.95 
   0  -3  -8    3.03    1.16 
   0  -3  -8    4.79    1.23 
   0  -3  -9   10.86    1.13 
   0  -3  -9    8.79    0.96 
   0  -3  -9    8.74    0.93 
   0  -3  -9    9.57    1.44 
   0  -3  -9    9.98    1.46 
   0  -3  -9    6.99    1.42 
   0  -3 -10    5.32    1.04 
   0  -3 -10    4.88    0.84 
   0  -3 -10    4.79    0.88 
   0  -3 -10    5.22    1.22 
   0  -3 -10    5.46    1.24 
   0  -3 -10    4.20    1.25 
   0  -3 -11    0.30    0.85 
   0  -4  11    0.09    0.63 
   0  -4  11    0.54    0.43 
   0  -4  10   -0.16    0.33 
   0  -4  10   -0.06    0.36 
   0  -4  10   -0.01    0.32 
   0  -4  10    0.10    0.38 
   0  -4  10    0.21    0.37 
   0  -4  10    0.02    0.83 
   0  -4  10    0.23    0.61 
   0  -4  10   -0.17    0.41 
   0  -4   9   -0.08    0.41 
   0  -4   9    0.06    0.42 
   0  -4   9    0.69    0.45 
   0  -4   9    0.82    0.43 
   0  -4   9    0.19    0.54 
   0  -4   9   -0.71    1.06 
   0  -4   9   -0.26    0.81 
   0  -4   9    1.42    0.50 
   0  -4   8    0.64    0.46 
   0  -4   8   -0.08    0.23 
   0  -4   8    0.33    0.39 
   0  -4   8    1.01    0.43 
   0  -4   8    0.55    0.19 
   0  -4   8    0.86    0.42 
   0  -4   8    0.14    0.54 
   0  -4   7    0.31    0.51 
   0  -4   7    0.33    0.55 
   0  -4   7   -0.02    0.54 
   0  -4   7   -0.13    0.52 
   0  -4   7    0.00    0.22 
   0  -4   7    0.25    0.34 
   0  -4   7    0.38    0.37 
   0  -4   7   -0.30    0.23 
   0  -4   7    0.61    0.97 
   0  -4   7    0.34    0.42 
   0  -4   7    0.26    0.48 
   0  -4   6    0.23    0.64 
   0  -4   6    0.41    0.31 
   0  -4   6    0.57    0.46 
   0  -4   6    0.34    0.47 
   0  -4   6    0.45    0.52 
   0  -4   6    0.34    0.48 
   0  -4   6    0.38    0.36 
   0  -4   6    0.51    0.22 
   0  -4   6    0.79    0.32 
   0  -4   6    0.39    0.21 
   0  -4   6    0.49    0.30 
   0  -4   6    0.22    0.19 
   0  -4   6    0.55    0.53 
   0  -4   6    0.02    0.52 
   0  -4   6    0.05    0.45 
   0  -4   6    0.27    0.33 
   0  -4   5   11.69    0.57 
   0  -4   5   15.31    0.49 
   0  -4   5   17.99    0.55 
   0  -4   5   19.47    0.58 
   0  -4   5   16.29    0.50 
   0  -4   5   15.73    0.44 
   0  -4   5   21.52    1.09 
   0  -4   5   21.26    0.95 
   0  -4   5   19.06    0.96 
   0  -4   5   15.23    0.91 
   0  -4   5   17.11    0.88 
   0  -4   5   14.82    0.71 
   0  -4   5   14.24    0.89 
   0  -4   5   15.71    0.82 
   0  -4   4    0.84    0.42 
   0  -4   4    1.17    0.23 
   0  -4   4    0.88    0.25 
   0  -4   4    1.18    0.27 
   0  -4   4    1.07    0.46 
   0  -4   4    1.04    0.39 
   0  -4   4    1.31    0.49 
   0  -4   4    1.34    0.48 
   0  -4   4    1.24    0.58 
   0  -4   4    1.00    0.33 
   0  -4   4    1.14    0.40 
   0  -4   4    1.76    0.44 
   0  -4   4    1.12    0.43 
   0  -4   3    6.80    0.60 
   0  -4   3    8.06    0.34 
   0  -4   3    9.32    0.39 
   0  -4   3    8.78    0.38 
   0  -4   3    8.19    0.32 
   0  -4   3    7.68    0.28 
   0  -4   3    8.27    0.74 
   0  -4   3    8.06    0.68 
   0  -4   3    9.43    0.86 
   0  -4   3    9.77    0.75 
   0  -4   3    9.81    0.73 
   0  -4   3    8.68    0.70 
   0  -4   3    8.43    0.59 
   0  -4   3    7.30    0.51 
   0  -4   3    7.93    0.66 
   0  -4   3    7.12    0.62 
   0  -4   2    6.93    0.85 
   0  -4   2    6.55    0.68 
   0  -4   2    5.92    0.28 
   0  -4   2    5.96    0.25 
   0  -4   2    7.10    0.71 
   0  -4   2    5.66    0.78 
   0  -4   2    6.06    0.73 
   0  -4   2    7.94    0.70 
   0  -4   2    7.34    0.82 
   0  -4   2    5.64    0.67 
   0  -4   2    5.98    0.52 
   0  -4   2    5.04    0.53 
   0  -4   1   43.25    1.63 
   0  -4   1   45.36    1.67 
   0  -4   1   34.25    1.24 
   0  -4   1   34.99    0.73 
   0  -4   1   35.55    0.74 
   0  -4   1   35.39    0.70 
   0  -4   1   32.88    1.38 
   0  -4   1   32.00    1.19 
   0  -4   1   39.52    1.41 
   0  -4   1   37.03    1.06 
   0  -4   1   34.06    0.99 
   0  -4   1   43.84    1.59 
   0  -4   1   33.66    1.28 
   0  -4   0    7.29    1.15 
   0  -4   0    5.38    1.08 
   0  -4   0   50.21    0.78 
   0  -4   0   52.34    1.38 
   0  -4   0   53.44    1.43 
   0  -4   0   40.22    1.30 
   0  -4   0   49.64    1.53 
   0  -4   0   46.66    1.12 
   0  -4   0   41.90    1.83 
   0  -4   0   42.62    1.49 
   0  -4  -1  169.77    2.66 
   0  -4  -1  160.34    2.65 
   0  -4  -1  188.42    2.63 
   0  -4  -1  160.41    3.31 
   0  -4  -1  167.37    3.30 
   0  -4  -1  189.02    3.13 
   0  -4  -1  162.20    2.94 
   0  -4  -1  179.21    3.06 
   0  -4  -1  133.26    3.16 
   0  -4  -1  132.51    3.40 
   0  -4  -1  131.09    3.34 
   0  -4  -2    8.08    0.30 
   0  -4  -2    7.97    0.30 
   0  -4  -2    1.89    0.94 
   0  -4  -2    1.69    0.79 
   0  -4  -2    7.18    0.51 
   0  -4  -2    6.60    0.54 
   0  -4  -2    7.41    0.52 
   0  -4  -2    1.61    0.77 
   0  -4  -2    2.68    0.75 
   0  -4  -2    7.89    0.52 
   0  -4  -2    7.58    0.56 
   0  -4  -2   -1.07    1.33 
   0  -4  -3    0.82    0.77 
   0  -4  -3    0.53    0.83 
   0  -4  -3    0.61    0.19 
   0  -4  -3    0.41    0.20 
   0  -4  -3   -0.75    0.90 
   0  -4  -3   -0.10    0.73 
   0  -4  -3    0.39    0.31 
   0  -4  -3    0.61    0.38 
   0  -4  -3   -1.25    0.78 
   0  -4  -3    0.52    0.33 
   0  -4  -3    0.68    0.39 
   0  -4  -3    0.64    0.37 
   0  -4  -3    0.79    0.29 
   0  -4  -4    1.22    0.83 
   0  -4  -4    0.75    0.75 
   0  -4  -4   -0.04    0.27 
   0  -4  -4    0.02    0.77 
   0  -4  -4   -0.46    0.90 
   0  -4  -4   -0.03    0.38 
   0  -4  -4   -0.10    0.38 
   0  -4  -4   -1.21    0.83 
   0  -4  -4    0.23    0.38 
   0  -4  -4    0.03    0.27 
   0  -4  -5   11.15    0.55 
   0  -4  -5   10.75    1.84 
   0  -4  -5   11.52    0.51 
   0  -4  -5    3.54    1.08 
   0  -4  -5   10.40    0.81 
   0  -4  -5    4.13    1.06 
   0  -4  -5    5.44    1.07 
   0  -4  -5   10.31    0.75 
   0  -4  -5    8.23    1.19 
   0  -4  -5    7.01    1.12 
   0  -4  -5   11.03    0.80 
   0  -4  -6  143.76    3.03 
   0  -4  -6  139.25    2.79 
   0  -4  -6  134.49    2.57 
   0  -4  -6  145.93    2.84 
   0  -4  -6  178.92    5.31 
   0  -4  -6  142.34    2.53 
   0  -4  -6  130.25    4.27 
   0  -4  -6   72.43    3.37 
   0  -4  -6  146.58    3.19 
   0  -4  -6   93.74    3.62 
   0  -4  -6  130.73    3.14 
   0  -4  -6  124.58    3.15 
   0  -4  -6  106.37    3.71 
   0  -4  -6  109.35    3.73 
   0  -4  -7    3.25    0.93 
   0  -4  -7    2.81    0.76 
   0  -4  -7    3.86    0.76 
   0  -4  -7    3.74    1.11 
   0  -4  -7    3.65    1.13 
   0  -4  -7    3.00    0.53 
   0  -4  -7    3.13    0.74 
   0  -4  -7    3.78    0.88 
   0  -4  -7    3.39    0.90 
   0  -4  -7    2.18    0.72 
   0  -4  -7    2.33    1.29 
   0  -4  -7    2.43    1.36 
   0  -4  -7    2.38    0.78 
   0  -4  -8   52.43    2.27 
   0  -4  -8   60.50    2.70 
   0  -4  -8   79.93    5.55 
   0  -4  -8   47.32    3.49 
   0  -4  -8   28.31    3.44 
   0  -4  -8   64.52    2.13 
   0  -4  -8   62.53    2.74 
   0  -4  -8   60.90    2.40 
   0  -4  -8   55.29    2.28 
   0  -4  -8   63.03    1.89 
   0  -4  -8   63.66    1.86 
   0  -4  -9   18.87    1.35 
   0  -4  -9   16.65    1.16 
   0  -4  -9   17.07    1.14 
   0  -4  -9   18.06    1.74 
   0  -4  -9   16.67    1.67 
   0  -4  -9    9.53    1.48 
   0  -4  -9   10.95    1.33 
   0  -4  -9    8.02    1.27 
   0  -4 -10    1.12    0.89 
   0  -4 -10    0.08    0.92 
   0  -4 -10    0.05    0.99 
   0  -4 -10    0.81    0.72 
   0  -4 -10    0.15    0.74 
   0  -4 -11    0.67    0.88 
   0  -4 -11    0.80    0.94 
   0  -5  11    0.14    0.18 
   0  -5  10    4.74    0.39 
   0  -5  10    4.43    0.37 
   0  -5  10    0.39    0.71 
   0  -5  10    0.53    0.52 
   0  -5  10    5.59    0.43 
   0  -5   9    0.41    0.42 
   0  -5   9    0.56    0.34 
   0  -5   9    0.35    0.37 
   0  -5   9   -0.33    0.45 
   0  -5   9   -0.25    0.94 
   0  -5   9    0.42    0.68 
   0  -5   9    0.58    0.45 
   0  -5   8    0.01    0.22 
   0  -5   8    0.62    0.41 
   0  -5   8    0.34    0.43 
   0  -5   8   -0.20    0.38 
   0  -5   8    0.89    0.19 
   0  -5   8    1.47    0.46 
   0  -5   8    0.09    0.54 
   0  -5   8    0.64    0.52 
   0  -5   7    0.55    0.98 
   0  -5   7    2.56    0.48 
   0  -5   7    3.23    0.59 
   0  -5   7    1.92    0.26 
   0  -5   7    1.32    0.40 
   0  -5   7    2.82    0.41 
   0  -5   7    2.55    0.43 
   0  -5   7    2.32    0.29 
   0  -5   7    2.71    0.25 
   0  -5   7    3.53    0.62 
   0  -5   7    1.99    0.61 
   0  -5   7    2.65    0.61 
   0  -5   7    2.70    0.54 
   0  -5   6   -0.27    0.43 
   0  -5   6   -0.55    0.57 
   0  -5   6    0.35    0.25 
   0  -5   6   -0.14    0.38 
   0  -5   6    0.17    0.23 
   0  -5   6    0.02    0.35 
   0  -5   6   -0.03    0.37 
   0  -5   6    0.00    0.21 
   0  -5   6   -0.01    0.33 
   0  -5   6   -0.19    0.51 
   0  -5   6    0.15    0.67 
   0  -5   6    0.96    0.80 
   0  -5   6    0.12    0.48 
   0  -5   6   -0.54    0.54 
   0  -5   6    0.07    0.48 
   0  -5   5   23.14    0.61 
   0  -5   5   18.91    0.52 
   0  -5   5   19.73    0.52 
   0  -5   5   23.62    0.71 
   0  -5   5   24.48    0.70 
   0  -5   5   25.63    1.27 
   0  -5   5   22.41    1.07 
   0  -5   5   27.77    1.13 
   0  -5   5   29.13    1.27 
   0  -5   5   22.96    1.10 
   0  -5   5   19.92    0.88 
   0  -5   5   20.20    1.07 
   0  -5   4    0.27    0.42 
   0  -5   4    0.62    0.25 
   0  -5   4    0.39    0.30 
   0  -5   4    0.67    0.20 
   0  -5   4    0.66    0.21 
   0  -5   4    0.20    0.32 
   0  -5   4    0.28    0.45 
   0  -5   4    0.16    0.57 
   0  -5   4    0.56    0.47 
   0  -5   4    0.41    0.52 
   0  -5   4    0.69    0.50 
   0  -5   4    1.01    0.48 
   0  -5   4    0.28    0.41 
   0  -5   4    0.53    0.35 
   0  -5   4    0.40    0.43 
   0  -5   3   10.73    0.83 
   0  -5   3   10.38    0.82 
   0  -5   3   10.11    0.77 
   0  -5   3   10.37    0.36 
   0  -5   3   10.31    0.36 
   0  -5   3   10.07    0.39 
   0  -5   3   10.80    0.36 
   0  -5   3    9.80    0.75 
   0  -5   3    7.95    0.63 
   0  -5   3   11.04    0.95 
   0  -5   3   10.55    0.78 
   0  -5   3   10.52    0.80 
   0  -5   3   10.12    0.73 
   0  -5   3    9.96    0.63 
   0  -5   2    3.59    0.66 
   0  -5   2    4.18    0.26 
   0  -5   2    3.82    0.25 
   0  -5   2    3.54    0.26 
   0  -5   2    3.44    0.24 
   0  -5   2    3.35    0.70 
   0  -5   2    3.05    0.56 
   0  -5   2    2.89    0.57 
   0  -5   2    2.98    0.57 
   0  -5   2    2.96    0.48 
   0  -5   2    3.49    0.70 
   0  -5   2    3.22    0.65 
   0  -5   2    3.20    0.58 
   0  -5   1    7.28    0.54 
   0  -5   1    6.22    0.71 
   0  -5   1    8.44    0.99 
   0  -5   1    8.61    0.92 
   0  -5   1    9.07    0.37 
   0  -5   1    8.51    0.35 
   0  -5   1    8.32    0.31 
   0  -5   1    5.95    0.42 
   0  -5   1    7.23    0.86 
   0  -5   1    6.96    0.69 
   0  -5   1    7.33    0.82 
   0  -5   1    8.28    0.90 
   0  -5   1    6.14    0.78 
   0  -5   1    7.68    0.57 
   0  -5   0   67.57    1.69 
   0  -5   0   38.06    2.10 
   0  -5   0   51.94    1.74 
   0  -5   0   31.52    1.98 
   0  -5   0   71.13    1.28 
   0  -5   0   69.30    1.25 
   0  -5   0   65.78    1.23 
   0  -5   0   76.19    1.31 
   0  -5   0   72.99    1.23 
   0  -5   0   69.58    1.81 
   0  -5   0   59.04    1.47 
   0  -5   0   68.18    1.83 
   0  -5   0   56.10    1.95 
   0  -5   0   54.91    1.73 
   0  -5   0   69.47    2.00 
   0  -5   0   69.66    1.69 
   0  -5   0   47.93    1.86 
   0  -5   0   70.52    2.27 
   0  -5  -1   24.71    0.60 
   0  -5  -1   23.57    0.57 
   0  -5  -1   22.16    0.56 
   0  -5  -1   24.40    0.54 
   0  -5  -1   19.03    1.06 
   0  -5  -1   19.72    0.79 
   0  -5  -1   18.17    1.07 
   0  -5  -1   24.67    0.94 
   0  -5  -1   24.04    0.93 
   0  -5  -1   16.91    1.02 
   0  -5  -1   16.58    1.18 
   0  -5  -1   15.28    1.19 
   0  -5  -1   14.88    1.60 
   0  -5  -2   37.18    1.26 
   0  -5  -2   34.92    0.89 
   0  -5  -2   40.80    0.78 
   0  -5  -2   37.71    0.77 
   0  -5  -2   35.46    0.74 
   0  -5  -2   24.60    1.21 
   0  -5  -2   22.76    1.39 
   0  -5  -2   39.61    1.20 
   0  -5  -2   34.63    1.22 
   0  -5  -2   29.12    1.34 
   0  -5  -2   24.14    1.32 
   0  -5  -2   34.65    1.13 
   0  -5  -2   40.14    1.23 
   0  -5  -2   -1.02    1.22 
   0  -5  -2   18.62    1.38 
   0  -5  -2    0.54    1.70 
   0  -5  -3   -1.69    1.76 
   0  -5  -3    3.47    0.29 
   0  -5  -3    2.81    0.27 
   0  -5  -3    0.14    0.79 
   0  -5  -3    2.24    0.98 
   0  -5  -3    3.54    0.55 
   0  -5  -3    3.75    0.49 
   0  -5  -3    3.06    0.55 
   0  -5  -3    3.49    0.38 
   0  -5  -3    1.70    0.75 
   0  -5  -3    1.67    0.71 
   0  -5  -3    3.45    0.53 
   0  -5  -3    3.44    0.50 
   0  -5  -4    1.05    0.59 
   0  -5  -4    1.63    0.37 
   0  -5  -4    1.26    0.25 
   0  -5  -4   -0.76    1.09 
   0  -5  -4    1.38    0.60 
   0  -5  -4    1.63    0.57 
   0  -5  -4    1.17    0.54 
   0  -5  -4    1.66    0.39 
   0  -5  -4   -1.10    0.90 
   0  -5  -4   -1.00    0.86 
   0  -5  -4    1.60    0.48 
   0  -5  -4    1.27    0.51 
   0  -5  -5   29.91    1.56 
   0  -5  -5   27.70    0.88 
   0  -5  -5   11.39    1.76 
   0  -5  -5    8.93    1.44 
   0  -5  -5   31.34    1.39 
   0  -5  -5   30.84    1.58 
   0  -5  -5   30.33    1.42 
   0  -5  -5   33.80    1.01 
   0  -5  -5   34.34    1.37 
   0  -5  -5   10.27    1.35 
   0  -5  -5   29.36    1.42 
   0  -5  -5    7.23    1.29 
   0  -5  -6   60.91    4.04 
   0  -5  -6   81.72    1.66 
   0  -5  -6   25.08    2.44 
   0  -5  -6   71.85    2.30 
   0  -5  -6   66.91    2.29 
   0  -5  -6   81.73    1.99 
   0  -5  -6   76.98    1.71 
   0  -5  -6   82.37    2.02 
   0  -5  -6   27.91    2.27 
   0  -5  -6   22.03    2.17 
   0  -5  -6   82.17    2.31 
   0  -5  -7   72.48    1.66 
   0  -5  -7   40.62    3.43 
   0  -5  -7   54.79    2.17 
   0  -5  -7   66.24    2.35 
   0  -5  -7   73.83    2.02 
   0  -5  -7   76.14    2.06 
   0  -5  -7   55.75    2.24 
   0  -5  -8    2.38    0.83 
   0  -5  -8    2.84    0.81 
   0  -5  -8    2.67    0.99 
   0  -5  -8    1.90    0.54 
   0  -5  -9    0.52    0.73 
   0  -5  -9    0.34    0.78 
   0  -5  -9    0.38    0.98 
   0  -5  -9   -0.19    0.99 
   0  -5  -9    0.36    0.89 
   0  -5  -9   -0.06    0.92 
   0  -5  -9    0.12    0.89 
   0  -5 -10   -0.40    0.83 
   0  -5 -10   -0.14    0.88 
   0  -5 -10   -0.10    0.82 
   0  -5 -10    0.74    0.65 
   0  -5 -10   -0.23    0.65 
   0  -6  10    5.83    0.31 
   0  -6   9    0.10    0.70 
   0  -6   9    0.06    0.48 
   0  -6   9    0.57    0.34 
   0  -6   9    0.42    0.28 
   0  -6   9    0.51    0.31 
   0  -6   8    1.75    0.36 
   0  -6   8    1.28    0.37 
   0  -6   8    1.30    0.45 
   0  -6   8    1.03    0.18 
   0  -6   7    0.66    0.23 
   0  -6   7    0.76    0.35 
   0  -6   7    0.04    0.23 
   0  -6   7    0.61    0.37 
   0  -6   7    0.75    0.20 
   0  -6   7    0.82    0.43 
   0  -6   7    0.56    0.82 
   0  -6   7    1.16    0.49 
   0  -6   6    4.06    0.33 
   0  -6   6    5.44    0.67 
   0  -6   6    5.34    0.60 
   0  -6   6    4.25    0.46 
   0  -6   6    4.47    0.44 
   0  -6   6    5.33    0.67 
   0  -6   6    3.97    0.48 
   0  -6   6    5.85    0.70 
   0  -6   5    2.24    0.31 
   0  -6   5    1.67    0.39 
   0  -6   5    1.43    0.23 
   0  -6   5    1.37    0.24 
   0  -6   5    1.44    0.41 
   0  -6   5    1.67    0.51 
   0  -6   5    2.11    0.60 
   0  -6   5    1.46    0.43 
   0  -6   5    1.45    0.54 
   0  -6   5    1.43    0.58 
   0  -6   5    0.81    0.68 
   0  -6   4   15.00    0.52 
   0  -6   4   12.92    0.44 
   0  -6   4   12.33    0.43 
   0  -6   4   13.15    0.51 
   0  -6   4   13.24    0.44 
   0  -6   4   13.67    1.05 
   0  -6   4   12.47    0.85 
   0  -6   4   13.84    0.91 
   0  -6   4   12.55    0.78 
   0  -6   4   14.03    1.00 
   0  -6   4   13.40    0.92 
   0  -6   4   11.17    0.81 
   0  -6   3   10.00    0.46 
   0  -6   3   10.58    0.83 
   0  -6   3   12.25    0.43 
   0  -6   3   11.79    0.42 
   0  -6   3   11.65    0.47 
   0  -6   3   12.31    0.42 
   0  -6   3   10.99    0.90 
   0  -6   3   11.67    0.91 
   0  -6   3   11.43    0.86 
   0  -6   3   12.63    1.04 
   0  -6   3   11.37    0.82 
   0  -6   3    9.15    0.77 
   0  -6   3   10.06    0.81 
   0  -6   3    8.04    0.58 
   0  -6   3    8.91    0.61 
   0  -6   2    5.13    0.52 
   0  -6   2    6.58    0.37 
   0  -6   2    6.15    0.33 
   0  -6   2    6.10    0.32 
   0  -6   2    5.23    0.34 
   0  -6   2    6.50    0.31 
   0  -6   2    5.05    0.83 
   0  -6   2    4.61    0.74 
   0  -6   2    4.26    0.76 
   0  -6   2    4.48    0.64 
   0  -6   2    4.68    0.65 
   0  -6   2    4.78    0.62 
   0  -6   2    5.46    0.77 
   0  -6   2    3.06    0.59 
   0  -6   2    4.19    0.49 
   0  -6   2    4.85    0.77 
   0  -6   1   15.35    0.82 
   0  -6   1   14.72    1.06 
   0  -6   1   17.02    1.26 
   0  -6   1   14.87    1.17 
   0  -6   1   13.05    0.87 
   0  -6   1   19.08    0.55 
   0  -6   1   16.53    0.54 
   0  -6   1   15.97    0.47 
   0  -6   1   13.34    0.91 
   0  -6   1   12.12    1.03 
   0  -6   1   12.18    0.88 
   0  -6   1    7.89    0.81 
   0  -6   1   14.64    1.17 
   0  -6   1   15.59    0.85 
   0  -6   1   12.87    0.78 
   0  -6   0    8.88    0.70 
   0  -6   0    8.85    0.71 
   0  -6   0    8.13    0.68 
   0  -6   0    7.55    0.77 
   0  -6   0    4.94    0.84 
   0  -6   0    7.43    0.89 
   0  -6   0    2.59    0.73 
   0  -6   0    9.29    0.71 
   0  -6   0    6.67    0.53 
   0  -6   0   10.61    0.43 
   0  -6   0    9.77    0.39 
   0  -6   0    9.53    0.41 
   0  -6   0    8.60    0.41 
   0  -6   0    9.21    0.36 
   0  -6   0    6.57    0.89 
   0  -6   0    8.21    1.03 
   0  -6   0    5.65    0.69 
   0  -6   0    7.94    1.18 
   0  -6  -1   29.83    0.71 
   0  -6  -1   29.01    0.69 
   0  -6  -1   27.28    0.66 
   0  -6  -1   28.21    1.13 
   0  -6  -1   18.38    1.13 
   0  -6  -1   17.29    1.13 
   0  -6  -1   22.95    0.96 
   0  -6  -1   26.69    1.14 
   0  -6  -1   26.07    1.15 
   0  -6  -1   17.22    1.22 
   0  -6  -1   19.18    1.11 
   0  -6  -1   18.55    1.28 
   0  -6  -1    7.09    1.03 
   0  -6  -1   22.01    1.68 
   0  -6  -1   14.08    1.00 
   0  -6  -2    0.82    0.36 
   0  -6  -2    0.55    0.29 
   0  -6  -2    0.68    0.26 
   0  -6  -2    0.69    0.27 
   0  -6  -2    0.51    0.45 
   0  -6  -2    0.45    0.62 
   0  -6  -2    0.26    0.65 
   0  -6  -2    0.91    0.44 
   0  -6  -2    0.39    0.44 
   0  -6  -2    0.02    0.78 
   0  -6  -2   -1.24    0.81 
   0  -6  -2    0.55    0.61 
   0  -6  -2  108.73    3.07 
   0  -6  -2   87.52    2.79 
   0  -6  -2   13.75    1.94 
   0  -6  -3    1.89    0.45 
   0  -6  -3    1.84    0.62 
   0  -6  -3   42.54    2.80 
   0  -6  -3    1.80    0.32 
   0  -6  -3    1.99    0.34 
   0  -6  -3    1.79    0.53 
   0  -6  -3    2.21    0.75 
   0  -6  -3    1.64    0.76 
   0  -6  -3    1.72    0.53 
   0  -6  -3    1.94    0.64 
   0  -6  -3    2.36    0.53 
   0  -6  -3    1.02    1.01 
   0  -6  -3    1.19    0.91 
   0  -6  -3    1.75    0.74 
   0  -6  -3  121.12    3.49 
   0  -6  -3  101.71    3.26 
   0  -6  -3    2.52    0.63 
   0  -6  -3    2.25    0.64 
   0  -6  -4    3.54    0.85 
   0  -6  -4   16.37    1.22 
   0  -6  -4   82.37    3.68 
   0  -6  -4   16.82    0.57 
   0  -6  -4    1.40    0.77 
   0  -6  -4   18.79    0.62 
   0  -6  -4    8.61    1.10 
   0  -6  -4   18.90    1.08 
   0  -6  -4   12.52    1.21 
   0  -6  -4   15.85    1.09 
   0  -6  -4   16.96    1.20 
   0  -6  -4   11.42    1.09 
   0  -6  -4    8.48    1.46 
   0  -6  -4   11.03    1.46 
   0  -6  -4  110.63    3.91 
   0  -6  -4   85.46    3.56 
   0  -6  -4   18.49    1.21 
   0  -6  -4   16.31    1.24 
   0  -6  -5    0.34    0.52 
   0  -6  -5    0.42    0.83 
   0  -6  -5    1.05    0.85 
   0  -6  -5    0.09    0.52 
   0  -6  -5    1.89    1.00 
   0  -6  -5    0.15    0.68 
   0  -6  -5    2.47    0.97 
   0  -6  -5    0.14    0.65 
   0  -6  -5    0.47    0.72 
   0  -6  -5    7.47    1.62 
   0  -6  -5    5.22    1.47 
   0  -6  -5   89.58    4.34 
   0  -6  -5   79.75    4.08 
   0  -6  -5   -0.19    0.69 
   0  -6  -6   70.98    2.79 
   0  -6  -6   25.51    2.59 
   0  -6  -6   79.05    1.77 
   0  -6  -6   74.34    2.26 
   0  -6  -6   36.13    2.75 
   0  -6  -6   70.04    2.45 
   0  -6  -6   69.91    2.78 
   0  -6  -6   66.87    2.46 
   0  -6  -6   81.76    2.08 
   0  -6  -6   76.10    1.83 
   0  -6  -6   87.63    2.15 
   0  -6  -7    7.21    0.86 
   0  -6  -7    6.05    0.82 
   0  -6  -7    4.77    1.15 
   0  -6  -7    5.10    1.13 
   0  -6  -7    4.63    0.81 
   0  -6  -7    4.73    0.86 
   0  -6  -7    5.68    0.62 
   0  -6  -8    4.33    0.81 
   0  -6  -8    4.65    0.80 
   0  -6  -8    4.76    1.10 
   0  -6  -8    3.77    1.11 
   0  -6  -8    4.29    0.56 
   0  -6  -9    0.04    0.63 
   0  -6  -9   -0.26    0.66 
   0  -6  -9   -0.03    0.74 
   0  -6  -9    0.49    0.72 
   0  -6  -9   -0.03    0.76 
   0  -7   8    0.14    0.15 
   0  -7   7   -0.02    0.18 
   0  -7   7   -0.11    0.16 
   0  -7   7    0.31    0.34 
   0  -7   6    0.98    0.53 
   0  -7   6    0.55    0.31 
   0  -7   6    0.22    0.39 
   0  -7   6    0.45    0.72 
   0  -7   6    0.84    0.51 
   0  -7   6    0.26    0.23 
   0  -7   5    1.36    0.21 
   0  -7   5    0.09    0.22 
   0  -7   5    1.73    0.27 
   0  -7   5    1.41    0.23 
   0  -7   5    1.45    0.45 
   0  -7   5    1.27    0.40 
   0  -7   5    0.29    0.57 
   0  -7   5    0.75    0.69 
   0  -7   5    1.29    0.28 
   0  -7   4    0.11    0.27 
   0  -7   4    0.18    0.25 
   0  -7   4    2.30    0.30 
   0  -7   4    2.10    0.25 
   0  -7   4    2.34    0.54 
   0  -7   4    2.21    0.48 
   0  -7   4    1.68    0.53 
   0  -7   4    2.12    0.59 
   0  -7   4    1.50    0.46 
   0  -7   4    1.73    0.47 
   0  -7   3    0.38    0.52 
   0  -7   3    0.03    0.43 
   0  -7   3    0.33    0.26 
   0  -7   3    0.37    0.24 
   0  -7   3    0.65    0.26 
   0  -7   3    0.34    0.22 
   0  -7   3    0.23    0.32 
   0  -7   3    0.36    0.51 
   0  -7   3    0.82    0.55 
   0  -7   3    0.57    0.48 
   0  -7   3    0.07    0.25 
   0  -7   2    2.63    0.55 
   0  -7   2    1.73    0.42 
   0  -7   2    2.21    0.64 
   0  -7   2    1.88    0.51 
   0  -7   2    2.07    0.34 
   0  -7   2    0.68    0.35 
   0  -7   2    2.81    0.32 
   0  -7   2    1.61    0.26 
   0  -7   2    2.26    0.30 
   0  -7   2    2.16    0.31 
   0  -7   2    1.98    0.26 
   0  -7   2    2.34    0.45 
   0  -7   2    1.59    0.58 
   0  -7   2    1.71    0.64 
   0  -7   2    1.73    0.59 
   0  -7   2    1.76    0.60 
   0  -7   1    1.46    0.51 
   0  -7   1    1.66    0.46 
   0  -7   1    1.12    0.58 
   0  -7   1    1.77    0.54 
   0  -7   1    1.58    0.53 
   0  -7   1    0.48    0.48 
   0  -7   1    2.17    0.48 
   0  -7   1    1.89    0.36 
   0  -7   1    0.54    0.35 
   0  -7   1    1.83    0.30 
   0  -7   1    1.77    0.26 
   0  -7   1    1.84    0.69 
   0  -7   1    1.46    0.61 
   0  -7   1    1.57    0.72 
   0  -7   1    1.33    0.66 
   0  -7   0    0.22    0.43 
   0  -7   0    0.06    0.48 
   0  -7   0   -0.23    0.57 
   0  -7   0   -0.07    0.55 
   0  -7   0   -0.14    0.50 
   0  -7   0    0.26    0.45 
   0  -7   0   -0.40    0.49 
   0  -7   0    0.19    0.35 
   0  -7   0    0.05    0.31 
   0  -7   0   -0.09    0.25 
   0  -7   0    0.12    0.30 
   0  -7   0    0.48    0.28 
   0  -7   0    0.03    0.29 
   0  -7   0   -0.15    0.24 
   0  -7   0    0.02    0.79 
   0  -7   0   -0.35    0.63 
   0  -7  -1    0.96    0.33 
   0  -7  -1    1.26    0.35 
   0  -7  -1    1.20    0.30 
   0  -7  -1    0.09    0.33 
   0  -7  -1    1.27    0.51 
   0  -7  -1    0.84    0.49 
   0  -7  -1    0.61    0.49 
   0  -7  -1    0.24    0.58 
   0  -7  -1   -0.32    0.65 
   0  -7  -1    1.53    0.54 
   0  -7  -1    0.48    0.69 
   0  -7  -2    0.78    0.49 
   0  -7  -2    0.14    0.44 
   0  -7  -2    0.87    0.33 
   0  -7  -2    0.64    0.49 
   0  -7  -2    1.24    0.38 
   0  -7  -2    1.12    0.31 
   0  -7  -2    0.07    0.34 
   0  -7  -2    1.34    0.53 
   0  -7  -2    0.83    0.43 
   0  -7  -2    0.68    0.61 
   0  -7  -2    0.84    0.73 
   0  -7  -2    0.21    0.70 
   0  -7  -2    0.29    0.70 
   0  -7  -2    2.78    1.03 
   0  -7  -2    0.51    0.49 
   0  -7  -3   -0.13    7.04 
   0  -7  -3   -0.06    0.54 
   0  -7  -3    0.01    0.33 
   0  -7  -3    0.19    0.29 
   0  -7  -3    0.02    0.48 
   0  -7  -3    0.26    0.47 
   0  -7  -3   -1.01    0.83 
   0  -7  -3    0.16    0.81 
   0  -7  -3    0.29    0.53 
   0  -7  -3    0.11    0.57 
   0  -7  -3   -0.09    0.61 
   0  -7  -3    0.05    0.72 
   0  -7  -4    1.46    0.35 
   0  -7  -4    0.07    0.50 
   0  -7  -4    1.47    0.31 
   0  -7  -4    1.83    0.67 
   0  -7  -4    1.79    0.73 
   0  -7  -4    1.37    0.69 
   0  -7  -4   -0.84    0.98 
   0  -7  -4    0.12    0.83 
   0  -7  -4    0.01    0.51 
   0  -7  -4    0.64    0.67 
   0  -7  -5    0.29    0.51 
   0  -7  -5   -0.02    0.50 
   0  -7  -5   -0.03    0.70 
   0  -7  -5   -0.10    0.75 
   0  -7  -5    0.13    0.73 
   0  -7  -5    0.34    0.87 
   0  -7  -5    0.82    0.68 
   0  -7  -5   -0.36    0.68 
   0  -7  -6    0.29    0.78 
   0  -7  -6    0.03    0.75 
   0  -7  -6    0.34    0.48 
   0  -7  -6    0.03    0.72 
   0  -7  -6   -0.35    0.59 
   0  -7  -6    0.52    0.48 
   0  -7  -6   -0.02    0.65 
   0  -7  -7   -0.03    0.72 
   0  -7  -7    0.58    0.47 
   0  -7  -7    0.70    0.63 
   0  -7  -7    0.52    0.60 
   0  -7  -8    0.37    0.53 
   0  -7  -8    0.20    0.51 
   0  -7  -8    0.01    0.62 
   0  -8   8   -0.06    0.13 
   0  -8   7   -0.26    0.26 
   0  -8   6    0.12    0.14 
   0  -8   6    0.04    0.17 
   0  -8   6   -0.02    0.16 
   0  -8   5   -0.08    0.19 
   0  -8   5    0.14    0.16 
   0  -8   5    0.08    0.40 
   0  -8   5   -0.05    0.28 
   0  -8   5   -0.15    0.22 
   0  -8   5    0.49    0.44 
   0  -8   4    0.28    0.34 
   0  -8   4    0.35    0.23 
   0  -8   4    0.03    0.19 
   0  -8   4   -0.02    0.20 
   0  -8   4   -0.02    0.20 
   0  -8   4    0.66    0.51 
   0  -8   4    0.47    0.59 
   0  -8   3    0.00    0.28 
   0  -8   3   -0.29    0.22 
   0  -8   3   -0.09    0.24 
   0  -8   3   -0.01    0.21 
   0  -8   3    0.00    0.23 
   0  -8   2    1.07    0.27 
   0  -8   2    1.03    0.23 
   0  -8   2    0.10    0.31 
   0  -8   2    0.82    0.35 
   0  -8   2    1.01    0.36 
   0  -8   2    0.83    0.41 
   0  -8   2    0.81    0.29 
   0  -8   1    0.08    0.30 
   0  -8   1   -0.22    0.25 
   0  -8   1   -0.05    0.26 
   0  -8   1   -0.09    0.21 
   0  -8   1    0.07    0.36 
   0  -8   1    0.33    0.47 
   0  -8   1   -0.06    0.32 
   0  -8   1   -0.13    0.36 
   0  -8   1    0.31    0.42 
   0  -8   0   -0.18    0.33 
   0  -8   0   -0.05    0.33 
   0  -8   0   -0.28    0.42 
   0  -8   0    0.14    0.40 
   0  -8   0    0.41    0.43 
   0  -8   0    0.10    0.56 
   0  -8   0   -0.05    0.28 
   0  -8   0    0.32    0.27 
   0  -8   0   -0.02    0.28 
   0  -8  -1    0.16    0.32 
   0  -8  -1    0.02    0.29 
   0  -8  -1   -0.07    0.27 
   0  -8  -1    0.02    0.44 
   0  -8  -1   -0.17    0.43 
   0  -8  -1   -0.05    0.43 
   0  -8  -1   -0.18    0.30 
   0  -8  -1   -0.75    0.70 
   0  -8  -2   -0.21    0.71 
   0  -8  -2    0.21    0.42 
   0  -8  -2    0.33    0.35 
   0  -8  -2    0.05    0.27 
   0  -8  -2    0.00    0.30 
   0  -8  -2   -0.02    0.50 
   0  -8  -3    0.57    0.43 
   0  -8  -3    0.70    0.31 
   0  -8  -3    0.51    0.28 
   0  -8  -3    0.23    0.87 
   0  -8  -4    1.19    0.60 
   0  -8  -4    0.01    0.53 
   0  -8  -4    1.46    0.51 
   0  -8  -4    0.77    0.45 
   0  -8  -4    1.53    0.49 
   0  -8  -4    1.90    0.59 
   0  -8  -5   -0.08    0.55 
   0  -8  -5    0.60    0.40 
   0  -8  -5    0.02    0.52 
   0  -8  -5    0.73    0.48 
   0  -8  -5    0.62    0.50 
   0  -8  -5    0.68    0.43 
   0  -8  -6    0.32    0.36 
   0  -8  -6    0.89    0.47 
   0  -8  -6    0.40    0.35 
   0  -8  -6    0.48    0.44 
   0  -8  -6    0.01    0.52 
   0  -9   4    0.34    0.33 
   0  -9   3    0.44    0.39 
   0  -9   3    0.30    0.44 
   0  -9   3    0.00    0.17 
   0  -9   3   -0.03    0.19 
   0  -9   3    0.11    0.19 
   0  -9   2   -0.05    0.20 
   0  -9   2    0.17    0.22 
   0  -9   2   -0.30    0.33 
   0  -9   1    0.00    0.24 
   0  -9   1    0.27    0.23 
   0  -9   1   -0.09    0.34 
   0  -9   0   -0.17    0.21 
   0  -9   0   -0.27    0.24 
   0  -9   0   -0.05    0.26 
   0  -9   0    0.05    0.23 
   0  -9   0   -0.18    0.32 
   0  -9   0   -0.35    0.36 
   0  -9  -1    0.07    0.34 
   0  -9  -1   -0.04    0.25 
   0  -9  -1    0.21    0.24 
   0  -9  -1    0.05    0.22 
   0  -9  -1    0.01    0.29 
   0  -9  -2   -0.11    0.26 
   0  -9  -2   -0.01    0.27 
   0  -9  -2   -0.21    0.20 
   0  -9  -2   -0.01    0.36 
   0  -9  -3   -0.05    0.23 
   0  -9  -3    0.01    0.28 
   0  -9  -3    0.06    0.18 
   0  -9  -3    0.10    0.30 
   0  -9  -4    0.23    0.29 
   0 -10   2    0.18    0.19 
   0 -10   1   -0.01    0.22 
   0 -10   0   -0.22    0.25 
   1  10   2    0.09    0.82 
   1  10   1    0.09    0.92 
   1  10   0    0.26    0.96 
   1  10  -1    0.29    0.48 
   1   9   4   -0.09    0.27 
   1   9   4    0.15    0.29 
   1   9   3    0.37    0.21 
   1   9   3    0.06    0.31 
   1   9   3    0.21    0.33 
   1   9   2   -0.10    0.23 
   1   9   2    0.03    0.23 
   1   9   2    0.06    0.35 
   1   9   2    0.29    0.38 
   1   9   1   -0.35    0.38 
   1   9   1   -0.34    0.41 
   1   9   1    0.15    0.24 
   1   9   1    0.02    0.25 
   1   9   1   -0.19    0.28 
   1   9   0    0.17    0.25 
   1   9   0    0.29    0.26 
   1   9   0   -0.02    0.30 
   1   9  -1    0.05    1.51 
   1   9  -1    0.17    0.31 
   1   9  -1   -0.21    0.27 
   1   9  -1   -0.18    0.26 
   1   9  -2    0.15    1.46 
   1   9  -2    0.21    0.31 
   1   9  -2    0.10    0.37 
   1   9  -2    0.09    0.40 
   1   9  -3    1.10    0.72 
   1   9  -3    0.13    0.34 
   1   9  -3    0.21    0.38 
   1   9  -3    0.19    0.30 
   1   9  -3   -0.23    0.26 
   1   9  -3    0.18    0.25 
   1   9  -4    0.69    0.67 
   1   9  -4   -0.24    0.29 
   1   9  -4   -0.02    0.31 
   1   9  -4   -0.18    0.22 
   1   9  -4   -0.08    0.22 
   1   9  -4    0.33    0.28 
   1   9  -5    0.27    0.57 
   1   8   7    0.37    0.38 
   1   8   6    1.18    0.32 
   1   8   6    0.69    0.32 
   1   8   6    0.84    0.25 
   1   8   6    0.87    0.26 
   1   8   5   16.25    0.56 
   1   8   5   12.08    0.60 
   1   8   5   11.04    0.58 
   1   8   5    8.54    0.57 
   1   8   5   16.62    0.57 
   1   8   5    9.92    0.61 
   1   8   4    0.35    0.41 
   1   8   4    0.55    0.45 
   1   8   4    0.09    0.37 
   1   8   4    0.25    0.36 
   1   8   4    0.22    0.29 
   1   8   4    0.52    0.27 
   1   8   4    0.50    0.31 
   1   8   3    2.00    0.40 
   1   8   3    2.27    0.41 
   1   8   3    3.51    0.38 
   1   8   3    2.27    0.34 
   1   8   3    2.80    0.36 
   1   8   3    3.59    0.40 
   1   8   3    2.57    0.51 
   1   8   3    2.59    0.55 
   1   8   3    3.39    0.69 
   1   8   3    2.06    0.58 
   1   8   2   -0.02    0.44 
   1   8   2    0.31    0.31 
   1   8   2    0.14    0.30 
   1   8   2    0.30    0.32 
   1   8   2    0.71    0.32 
   1   8   2    0.40    0.50 
   1   8   2    0.03    0.47 
   1   8   2    0.73    0.57 
   1   8   2    0.08    0.34 
   1   8   1    0.02    0.44 
   1   8   1   -0.11    0.34 
   1   8   1    0.24    0.31 
   1   8   1   -0.22    0.29 
   1   8   1    0.04    0.34 
   1   8   1    0.10    0.38 
   1   8   1    0.28    1.45 
   1   8   1   -0.10    0.52 
   1   8   1    0.04    0.56 
   1   8   1    0.14    0.55 
   1   8   0    4.46    0.52 
   1   8   0    4.14    0.68 
   1   8   0    3.29    0.70 
   1   8   0    3.29    0.39 
   1   8   0    2.55    0.44 
   1   8   0    3.08    0.45 
   1   8   0    3.44    0.37 
   1   8  -1    1.08    0.87 
   1   8  -1    0.36    0.68 
   1   8  -1    0.51    0.75 
   1   8  -1    0.18    0.46 
   1   8  -1    0.77    0.28 
   1   8  -1    1.27    0.41 
   1   8  -1    0.28    0.26 
   1   8  -1    1.07    0.40 
   1   8  -2    2.30    1.01 
   1   8  -2    0.98    0.82 
   1   8  -2    1.65    0.74 
   1   8  -2    2.74    0.66 
   1   8  -2    2.14    0.61 
   1   8  -3   -0.07    0.94 
   1   8  -3   -0.09    1.82 
   1   8  -3    0.31    0.74 
   1   8  -3    0.32    0.64 
   1   8  -3   -0.03    0.75 
   1   8  -3    0.37    0.57 
   1   8  -4    1.13    0.39 
   1   8  -4    1.44    0.40 
   1   8  -4    0.10    0.74 
   1   8  -4    0.41    0.60 
   1   8  -4    0.38    0.72 
   1   8  -4    0.85    0.97 
   1   8  -5    1.38    0.35 
   1   8  -5    1.58    0.36 
   1   8  -5    1.94    0.86 
   1   8  -5    1.20    0.72 
   1   8  -5    0.34    0.62 
   1   8  -5    0.79    0.48 
   1   8  -6    0.03    0.75 
   1   8  -6    0.09    0.27 
   1   8  -6    0.27    0.27 
   1   7   8   -0.17    0.22 
   1   7   8   -0.24    0.21 
   1   7   8   -0.35    0.31 
   1   7   8    0.07    0.30 
   1   7   7    0.89    0.28 
   1   7   7    0.92    0.28 
   1   7   7    0.99    0.26 
   1   7   7    0.96    0.40 
   1   7   7    0.69    0.41 
   1   7   6    7.03    0.56 
   1   7   6   13.82    0.53 
   1   7   6    7.89    0.60 
   1   7   6    1.94    1.32 
   1   7   6   11.84    0.98 
   1   7   6   13.91    0.69 
   1   7   6   14.21    0.71 
   1   7   5   14.49    0.75 
   1   7   5   15.35    0.77 
   1   7   5   13.65    1.09 
   1   7   5   13.96    0.57 
   1   7   5   10.53    0.71 
   1   7   5   13.90    1.09 
   1   7   5   10.16    0.69 
   1   7   4    6.34    0.86 
   1   7   4    7.97    0.71 
   1   7   4   10.05    0.68 
   1   7   4    9.66    0.67 
   1   7   4    9.02    0.59 
   1   7   4    9.83    0.58 
   1   7   4    8.91    0.51 
   1   7   4    9.64    0.49 
   1   7   4    9.71    0.49 
   1   7   4    7.97    0.73 
   1   7   4   11.38    1.65 
   1   7   4   10.47    1.04 
   1   7   4    9.86    0.98 
   1   7   4    8.77    0.97 
   1   7   3    0.40    0.46 
   1   7   3    0.34    0.35 
   1   7   3    0.41    0.45 
   1   7   3   -0.02    0.56 
   1   7   3    0.37    0.35 
   1   7   3    0.11    0.33 
   1   7   3    0.07    0.29 
   1   7   3    0.35    0.34 
   1   7   3    0.49    0.37 
   1   7   3    0.83    0.58 
   1   7   3    0.13    0.59 
   1   7   3    0.63    0.50 
   1   7   3    0.66    0.54 
   1   7   3   -0.05    0.52 
   1   7   3    0.26    0.43 
   1   7   2    1.38    0.41 
   1   7   2    1.55    0.45 
   1   7   2    1.36    0.46 
   1   7   2    1.10    0.61 
   1   7   2    1.40    0.38 
   1   7   2    1.46    0.39 
   1   7   2    1.17    0.37 
   1   7   2    1.35    0.32 
   1   7   2    1.00    0.38 
   1   7   2    0.79    0.65 
   1   7   2    2.05    1.44 
   1   7   2    0.20    1.40 
   1   7   2    1.70    0.56 
   1   7   2    0.97    0.60 
   1   7   2    0.55    0.58 
   1   7   1    5.24    0.60 
   1   7   1    6.34    1.02 
   1   7   1    4.20    0.53 
   1   7   1    4.22    0.51 
   1   7   1    6.36    0.55 
   1   7   1    4.75    0.50 
   1   7   1    4.20    0.47 
   1   7   1    3.75    0.41 
   1   7   1    3.92    0.48 
   1   7   1    3.72    0.47 
   1   7   1    5.16    0.74 
   1   7   1    4.92    0.75 
   1   7   1    5.16    0.95 
   1   7   1    3.22    0.80 
   1   7   0    1.07    0.39 
   1   7   0    1.10    0.38 
   1   7   0    2.01    0.44 
   1   7   0    1.48    0.44 
   1   7   0    1.11    0.63 
   1   7   0    1.47    0.87 
   1   7   0    1.37    0.64 
   1   7   0    1.81    0.69 
   1   7   0    1.78    0.78 
   1   7   0    0.80    0.67 
   1   7  -1    3.44    0.84 
   1   7  -1    6.14    0.57 
   1   7  -1    6.48    0.59 
   1   7  -1    5.27    1.09 
   1   7  -1    5.04    1.11 
   1   7  -1    2.73    0.94 
   1   7  -1    3.30    0.99 
   1   7  -1    4.35    0.95 
   1   7  -2    1.05    0.60 
   1   7  -2    0.09    0.58 
   1   7  -2    0.03    0.67 
   1   7  -2   -0.11    0.79 
   1   7  -2   -0.09    0.63 
   1   7  -2    0.94    0.96 
   1   7  -2   -0.75    0.79 
   1   7  -2    0.09    0.79 
   1   7  -2    0.71    0.85 
   1   7  -2    0.91    0.96 
   1   7  -2   -0.45    0.56 
   1   7  -2    0.42    0.70 
   1   7  -3    0.41    0.72 
   1   7  -3    1.52    0.65 
   1   7  -3   -0.12    0.56 
   1   7  -3   -0.40    0.66 
   1   7  -3    0.65    0.77 
   1   7  -3    0.02    0.78 
   1   7  -3   -0.18    0.88 
   1   7  -3    0.01    0.68 
   1   7  -3    0.41    0.78 
   1   7  -3   -0.09    0.78 
   1   7  -3    0.24    0.91 
   1   7  -3    0.10    0.98 
   1   7  -3    0.59    1.03 
   1   7  -3    0.72    0.90 
   1   7  -4    1.68    1.06 
   1   7  -4   -0.15    0.84 
   1   7  -4    0.72    0.83 
   1   7  -4   -0.02    0.90 
   1   7  -4    0.80    0.77 
   1   7  -4    1.51    0.81 
   1   7  -4    1.93    0.69 
   1   7  -4   -0.41    0.88 
   1   7  -4    1.12    0.53 
   1   7  -4    1.43    0.53 
   1   7  -4    1.13    0.72 
   1   7  -4    1.94    0.91 
   1   7  -4    0.99    0.98 
   1   7  -4    0.37    0.57 
   1   7  -5    0.18    0.62 
   1   7  -5    0.68    0.68 
   1   7  -5   -0.28    0.86 
   1   7  -5    0.36    0.49 
   1   7  -5    0.20    0.48 
   1   7  -5    0.23    0.93 
   1   7  -5   -0.24    0.68 
   1   7  -5    0.40    0.95 
   1   7  -5   -0.71    0.76 
   1   7  -5   -0.99    0.85 
   1   7  -5    0.17    0.76 
   1   7  -5   -0.80    0.99 
   1   7  -6    0.83    0.57 
   1   7  -6    3.01    0.67 
   1   7  -6    1.31    0.89 
   1   7  -6    2.56    0.47 
   1   7  -6    2.65    0.49 
   1   7  -6    2.77    1.03 
   1   7  -6    2.80    1.01 
   1   7  -6    1.55    0.71 
   1   7  -6    1.84    0.92 
   1   7  -6    2.31    0.66 
   1   7  -6   -0.12    0.89 
   1   7  -6   -0.01    0.75 
   1   7  -6    0.32    0.86 
   1   7  -7   -0.31    0.35 
   1   7  -7   -0.39    0.36 
   1   7  -7    0.50    0.79 
   1   7  -7   -0.05    0.81 
   1   7  -7   -0.06    0.63 
   1   7  -7   -0.06    0.70 
   1   7  -8    0.13    0.37 
   1   7  -8   -0.01    0.53 
   1   7  -8    0.05    0.67 
   1   7  -8   -0.05    0.51 
   1   6   9    0.30    0.33 
   1   6   9    0.36    0.33 
   1   6   9   -0.06    0.22 
   1   6   8    9.18    0.88 
   1   6   8    8.79    0.45 
   1   6   8    9.25    0.47 
   1   6   8    8.81    0.46 
   1   6   7   25.09    1.45 
   1   6   7   26.68    0.81 
   1   6   7   26.62    0.79 
   1   6   7   27.31    0.83 
   1   6   6    5.74    0.65 
   1   6   6    4.77    0.64 
   1   6   6    6.13    0.49 
   1   6   6    6.11    0.48 
   1   6   6    5.93    0.46 
   1   6   6    3.44    0.49 
   1   6   6    3.59    0.52 
   1   6   6    3.90    1.42 
   1   6   6    5.99    1.33 
   1   6   6    5.85    0.91 
   1   6   6    3.82    0.68 
   1   6   5   38.55    1.31 
   1   6   5   55.69    1.43 
   1   6   5   54.93    1.43 
   1   6   5   54.79    2.00 
   1   6   5   51.61    1.19 
   1   6   5   51.08    1.06 
   1   6   5   42.56    1.30 
   1   6   5   46.14    2.13 
   1   6   5   53.49    2.13 
   1   6   5   33.67    1.34 
   1   6   5   45.49    1.84 
   1   6   4    9.16    0.70 
   1   6   4    9.32    0.68 
   1   6   4    6.81    0.91 
   1   6   4    9.22    0.47 
   1   6   4    8.46    0.45 
   1   6   4    8.24    0.51 
   1   6   4    8.40    0.69 
   1   6   4    8.71    0.68 
   1   6   4    9.56    1.50 
   1   6   4    8.74    0.94 
   1   6   4    8.00    1.00 
   1   6   4    6.69    0.64 
   1   6   4    6.48    0.83 
   1   6   3    0.56    0.48 
   1   6   3    0.67    0.51 
   1   6   3   -0.02    0.59 
   1   6   3   -0.56    0.34 
   1   6   3    0.64    0.36 
   1   6   3    0.30    0.35 
   1   6   3   -0.10    0.33 
   1   6   3    0.12    0.32 
   1   6   3    0.56    0.47 
   1   6   3    0.14    0.31 
   1   6   3    0.59    0.47 
   1   6   3    1.21    1.29 
   1   6   3    0.38    0.63 
   1   6   3   -0.10    0.59 
   1   6   3    0.25    0.39 
   1   6   3   -0.18    0.54 
   1   6   2    0.45    0.47 
   1   6   2    0.50    0.53 
   1   6   2    0.11    0.31 
   1   6   2    0.33    0.32 
   1   6   2    0.22    0.29 
   1   6   2    0.39    0.34 
   1   6   2    0.31    0.33 
   1   6   2    0.30    0.59 
   1   6   2    0.36    0.61 
   1   6   2   -0.26    0.52 
   1   6   2    0.32    0.58 
   1   6   2    0.24    0.58 
   1   6   2    0.24    0.44 
   1   6   2    0.05    0.34 
   1   6   2    0.33    0.42 
   1   6   1    0.11    0.44 
   1   6   1    0.38    0.43 
   1   6   1    0.07    0.59 
   1   6   1    0.20    0.31 
   1   6   1   -0.10    0.34 
   1   6   1    0.12    0.35 
   1   6   1   -0.12    0.38 
   1   6   1    0.18    0.53 
   1   6   1    0.39    0.70 
   1   6   1   -0.02    0.57 
   1   6   1    0.09    0.67 
   1   6   1    0.33    1.22 
   1   6   1    0.44    1.14 
   1   6   0   22.40    0.93 
   1   6   0   21.13    0.92 
   1   6   0   19.67    1.47 
   1   6   0   25.36    0.82 
   1   6   0   31.55    0.89 
   1   6   0   29.53    0.87 
   1   6   0   29.29    1.05 
   1   6   0   30.24    1.04 
   1   6   0   27.16    1.60 
   1   6   0   26.82    1.67 
   1   6   0   40.06    1.80 
   1   6   0    1.37    1.48 
   1   6   0   16.06    1.46 
   1   6   0   31.76    1.71 
   1   6   0   26.83    1.74 
   1   6  -1    9.87    0.87 
   1   6  -1    7.12    0.75 
   1   6  -1   -0.62    0.81 
   1   6  -1    6.90    1.19 
   1   6  -1    3.02    0.59 
   1   6  -1    3.72    0.59 
   1   6  -1   10.20    0.73 
   1   6  -1    6.44    0.57 
   1   6  -1    6.09    1.04 
   1   6  -1    6.67    0.57 
   1   6  -1    5.09    0.49 
   1   6  -1    8.04    0.62 
   1   6  -1    8.50    0.63 
   1   6  -1   10.96    0.78 
   1   6  -1    9.74    0.63 
   1   6  -1    2.63    1.06 
   1   6  -1    7.06    1.19 
   1   6  -2    3.91    1.18 
   1   6  -2    5.26    1.28 
   1   6  -2    4.96    0.73 
   1   6  -2    3.92    1.08 
   1   6  -2    3.30    0.92 
   1   6  -2    2.89    0.45 
   1   6  -2    3.55    0.51 
   1   6  -2    3.38    0.52 
   1   6  -2    4.82    0.89 
   1   6  -2   -0.34    0.85 
   1   6  -2    3.10    0.77 
   1   6  -2    3.85    1.00 
   1   6  -2    4.99    1.05 
   1   6  -2    8.17    0.73 
   1   6  -2   -1.40    1.09 
   1   6  -2    5.46    1.17 
   1   6  -3   -0.60    1.12 
   1   6  -3    0.35    0.93 
   1   6  -3    0.16    0.88 
   1   6  -3    0.79    0.79 
   1   6  -3    0.74    0.74 
   1   6  -3   -0.52    1.00 
   1   6  -3    0.05    0.77 
   1   6  -3    0.03    0.42 
   1   6  -3   -0.01    0.42 
   1   6  -3    1.59    0.90 
   1   6  -3    0.09    0.95 
   1   6  -3    0.10    0.83 
   1   6  -3    0.39    0.89 
   1   6  -3   -0.38    0.63 
   1   6  -3   -0.14    1.09 
   1   6  -4   -0.78    1.25 
   1   6  -4    0.20    0.94 
   1   6  -4   -0.50    1.01 
   1   6  -4    0.95    0.81 
   1   6  -4    1.03    0.78 
   1   6  -4    0.86    1.04 
   1   6  -4    0.49    0.71 
   1   6  -4    0.02    0.40 
   1   6  -4    0.99    0.59 
   1   6  -4    0.77    0.60 
   1   6  -4    0.88    0.87 
   1   6  -4    0.19    1.09 
   1   6  -4    0.25    0.94 
   1   6  -4    1.06    0.97 
   1   6  -4    0.27    0.59 
   1   6  -4   -0.08    1.19 
   1   6  -5   -0.04    1.22 
   1   6  -5    0.68    1.06 
   1   6  -5   -0.13    0.90 
   1   6  -5   -0.06    0.91 
   1   6  -5    0.29    0.86 
   1   6  -5   -0.05    1.16 
   1   6  -5    0.43    0.98 
   1   6  -5    2.09    1.08 
   1   6  -5    0.35    0.80 
   1   6  -5    0.80    0.89 
   1   6  -5    0.68    1.12 
   1   6  -5    1.23    0.61 
   1   6  -5    0.96    0.59 
   1   6  -5    0.81    1.24 
   1   6  -5    0.37    0.61 
   1   6  -6    0.70    1.22 
   1   6  -6    1.28    0.81 
   1   6  -6    0.24    1.21 
   1   6  -6    0.40    0.99 
   1   6  -6   -0.06    1.05 
   1   6  -6    0.54    1.07 
   1   6  -6    1.33    0.56 
   1   6  -6    1.44    0.56 
   1   6  -6    2.13    1.16 
   1   6  -6    1.08    1.22 
   1   6  -6    0.95    1.20 
   1   6  -6    0.48    0.72 
   1   6  -7   -0.40    0.48 
   1   6  -7    0.26    0.48 
   1   6  -7   -0.01    0.66 
   1   6  -7    0.61    1.17 
   1   6  -7    0.21    0.92 
   1   6  -7    0.20    0.99 
   1   6  -7    0.43    1.08 
   1   6  -7   -0.16    0.59 
   1   6  -7    0.43    0.98 
   1   6  -8   -0.67    0.60 
   1   6  -8   -0.22    0.40 
   1   6  -8   -0.22    0.38 
   1   6  -8   -0.32    1.10 
   1   6  -8    0.10    0.81 
   1   6  -8   -0.14    0.85 
   1   6  -8   -0.43    0.96 
   1   6  -8   -0.06    0.82 
   1   6  -8    0.40    0.86 
   1   6  -9   -0.35    0.90 
   1   6  -9    0.22    0.63 
   1   6  -9   -0.01    0.68 
   1   6  -9   -0.16    0.46 
   1   5  10    1.16    0.33 
   1   5  10    1.24    0.33 
   1   5   9    2.73    0.33 
   1   5   9    3.07    0.34 
   1   5   9    4.43    0.89 
   1   5   9    4.34    0.49 
   1   5   9    3.59    0.48 
   1   5   8    7.02    0.64 
   1   5   8    6.51    0.63 
   1   5   8    7.96    1.03 
   1   5   8    7.20    0.48 
   1   5   8    7.63    0.47 
   1   5   7    3.21    0.87 
   1   5   7    3.56    0.61 
   1   5   7    4.32    0.63 
   1   5   7    3.63    0.44 
   1   5   7    3.25    0.42 
   1   5   7    2.82    0.57 
   1   5   7    5.30    1.03 
   1   5   7    1.22    1.20 
   1   5   6    7.10    1.07 
   1   5   6    5.55    1.38 
   1   5   6    4.17    0.67 
   1   5   6    4.87    0.72 
   1   5   6    5.51    0.76 
   1   5   6    3.88    0.51 
   1   5   6    3.91    0.49 
   1   5   6    6.14    0.87 
   1   5   6    7.56    0.52 
   1   5   6    7.48    0.49 
   1   5   6    7.88    0.50 
   1   5   6    4.88    0.69 
   1   5   6    7.09    0.99 
   1   5   5    0.62    1.18 
   1   5   5   -0.01    0.36 
   1   5   5   -0.62    0.53 
   1   5   5    0.03    0.23 
   1   5   5    0.18    0.32 
   1   5   5    0.09    0.34 
   1   5   5    0.19    0.24 
   1   5   5   -0.03    0.33 
   1   5   5   -0.06    0.44 
   1   5   5    0.16    0.41 
   1   5   5   -0.05    0.51 
   1   5   5   -0.05    0.67 
   1   5   5   -0.17    0.55 
   1   5   5   -0.05    0.37 
   1   5   5   -0.18    0.40 
   1   5   4    4.11    0.50 
   1   5   4    4.18    0.48 
   1   5   4    5.23    0.55 
   1   5   4    5.02    0.54 
   1   5   4    4.34    0.42 
   1   5   4    3.57    0.47 
   1   5   4    3.16    0.59 
   1   5   4    4.69    0.41 
   1   5   4    4.21    0.38 
   1   5   4    4.57    0.33 
   1   5   4    4.63    0.33 
   1   5   4    4.50    0.60 
   1   5   4    3.24    0.55 
   1   5   4    2.97    0.53 
   1   5   4    3.44    0.79 
   1   5   4    5.01    0.71 
   1   5   4    3.20    0.59 
   1   5   3   18.81    0.93 
   1   5   3   23.06    0.89 
   1   5   3   24.64    0.89 
   1   5   3   17.63    1.24 
   1   5   3   18.37    0.67 
   1   5   3   20.38    0.62 
   1   5   3   18.55    0.60 
   1   5   3   19.38    0.82 
   1   5   3   19.69    0.84 
   1   5   3   21.24    0.65 
   1   5   3   17.65    0.97 
   1   5   3   19.94    1.28 
   1   5   3   25.89    1.27 
   1   5   3   19.66    0.83 
   1   5   3   22.16    1.28 
   1   5   3   18.12    1.08 
   1   5   2    3.02    0.46 
   1   5   2    3.09    0.50 
   1   5   2    2.16    0.47 
   1   5   2    2.48    0.46 
   1   5   2    2.99    0.35 
   1   5   2    2.22    0.32 
   1   5   2    2.39    0.34 
   1   5   2    1.90    0.31 
   1   5   2    0.92    0.61 
   1   5   2    1.44    0.47 
   1   5   2    1.50    0.66 
   1   5   2    1.68    0.61 
   1   5   2    2.44    0.67 
   1   5   2    2.14    0.66 
   1   5   2    1.68    0.56 
   1   5   1   -0.33    0.42 
   1   5   1   -0.19    0.42 
   1   5   1    0.33    0.60 
   1   5   1    0.49    0.34 
   1   5   1    0.19    0.31 
   1   5   1    0.82    0.32 
   1   5   1    0.77    0.31 
   1   5   1   -0.06    0.59 
   1   5   1   -0.02    0.40 
   1   5   1   -0.26    0.58 
   1   5   1    0.44    0.32 
   1   5   1    0.21    0.41 
   1   5   1    0.12    0.61 
   1   5   1    0.06    0.57 
   1   5   1    0.46    0.63 
   1   5   1   -0.08    0.60 
   1   5   0   42.99    1.08 
   1   5   0   53.17    1.18 
   1   5   0   21.27    1.21 
   1   5   0   34.51    1.31 
   1   5   0   32.19    1.25 
   1   5   0   23.47    1.06 
   1   5   0   22.62    1.04 
   1   5   0   46.80    1.10 
   1   5   0   26.37    1.01 
   1   5   0   29.71    1.00 
   1   5   0   26.24    0.93 
   1   5   0   33.45    0.95 
   1   5   0   31.58    0.96 
   1   5   0   39.73    1.76 
   1   5   0   42.25    1.71 
   1   5   0   36.14    1.72 
   1   5   0   40.97    1.69 
   1   5   0   25.84    1.62 
   1   5   0   40.20    1.90 
   1   5   0   40.96    1.73 
   1   5   0   25.89    1.59 
   1   5  -1   13.47    0.72 
   1   5  -1    9.87    0.56 
   1   5  -1    7.38    1.14 
   1   5  -1   13.34    1.30 
   1   5  -1   11.58    1.23 
   1   5  -1    9.42    0.87 
   1   5  -1   10.61    0.84 
   1   5  -1    7.67    0.81 
   1   5  -1   11.82    0.78 
   1   5  -1    7.33    0.65 
   1   5  -1    6.28    0.63 
   1   5  -1   13.03    0.66 
   1   5  -1   12.38    0.67 
   1   5  -1   10.10    1.21 
   1   5  -1    7.36    1.17 
   1   5  -1    9.57    1.23 
   1   5  -1    4.23    0.97 
   1   5  -2    3.86    1.09 
   1   5  -2    6.97    0.53 
   1   5  -2    6.30    0.87 
   1   5  -2   -1.20    0.84 
   1   5  -2    3.65    0.74 
   1   5  -2    4.65    1.10 
   1   5  -2   -0.15    1.45 
   1   5  -2    2.73    0.84 
   1   5  -2    6.03    0.72 
   1   5  -2    4.75    0.54 
   1   5  -2    4.32    0.53 
   1   5  -2    6.48    0.56 
   1   5  -2    3.40    0.95 
   1   5  -2    5.00    1.06 
   1   5  -2    7.58    0.51 
   1   5  -2    1.27    1.05 
   1   5  -2   10.89    0.69 
   1   5  -3   17.02    1.53 
   1   5  -3   21.97    1.27 
   1   5  -3   14.44    1.06 
   1   5  -3   -0.20    0.97 
   1   5  -3   18.67    1.27 
   1   5  -3   18.16    1.14 
   1   5  -3   22.87    1.07 
   1   5  -3   20.49    1.66 
   1   5  -3   11.01    1.41 
   1   5  -3   18.60    1.69 
   1   5  -3   24.63    0.93 
   1   5  -3   35.73    1.13 
   1   5  -3   13.78    1.59 
   1   5  -3   16.43    1.50 
   1   5  -3   19.28    2.24 
   1   5  -3   18.61    1.64 
   1   5  -4    2.46    1.02 
   1   5  -4    1.74    1.01 
   1   5  -4    5.07    1.05 
   1   5  -4    0.21    1.06 
   1   5  -4    8.36    1.08 
   1   5  -4    2.67    0.94 
   1   5  -4    7.69    0.96 
   1   5  -4    4.57    0.85 
   1   5  -4    1.44    0.96 
   1   5  -4    2.82    1.21 
   1   5  -4    0.73    0.66 
   1   5  -4    1.61    0.69 
   1   5  -4    3.21    1.23 
   1   5  -4    4.92    0.64 
   1   5  -4    1.10    1.69 
   1   5  -4    3.98    1.26 
   1   5  -5    1.02    0.96 
   1   5  -5    1.34    0.96 
   1   5  -5    3.11    1.11 
   1   5  -5   17.80    1.30 
   1   5  -5   -0.13    1.18 
   1   5  -5    3.04    1.08 
   1   5  -5   18.12    1.24 
   1   5  -5    2.93    0.95 
   1   5  -5    0.67    1.19 
   1   5  -5    0.72    0.89 
   1   5  -5    0.91    0.73 
   1   5  -5    2.53    0.75 
   1   5  -5    1.95    1.33 
   1   5  -5    1.69    0.65 
   1   5  -5    4.35    1.94 
   1   5  -5    1.95    1.35 
   1   5  -5   17.32    1.66 
   1   5  -6   16.63    1.16 
   1   5  -6   -0.13    0.61 
   1   5  -6   -0.16    1.19 
   1   5  -6    4.13    0.75 
   1   5  -6    1.66    0.73 
   1   5  -6    0.68    1.33 
   1   5  -6   -0.09    0.64 
   1   5  -6    0.24    1.03 
   1   5  -6    0.25    0.88 
   1   5  -6    0.10    0.84 
   1   5  -6    0.06    1.14 
   1   5  -6    0.14    1.40 
   1   5  -6   13.78    1.20 
   1   5  -6    0.57    1.08 
   1   5  -7    3.23    0.89 
   1   5  -7    0.08    0.98 
   1   5  -7    0.06    0.87 
   1   5  -7    0.22    0.84 
   1   5  -7   -0.04    1.21 
   1   5  -7   -0.14    0.65 
   1   5  -7    1.14    0.66 
   1   5  -7   -0.23    0.63 
   1   5  -7   -0.16    0.68 
   1   5  -7    0.57    1.32 
   1   5  -7   -0.42    1.29 
   1   5  -7    0.42    1.20 
   1   5  -7    0.59    1.39 
   1   5  -7    0.15    1.14 
   1   5  -7    3.94    0.98 
   1   5  -8    1.25    0.79 
   1   5  -8   -0.15    0.54 
   1   5  -8    0.54    0.53 
   1   5  -8   -0.12    1.11 
   1   5  -8   -0.08    1.22 
   1   5  -8    1.98    1.20 
   1   5  -8   -0.02    1.11 
   1   5  -8    0.15    1.34 
   1   5  -8    0.51    1.10 
   1   5  -9    1.60    0.68 
   1   5  -9    0.53    0.41 
   1   5  -9    0.67    0.42 
   1   5  -9    1.95    1.05 
   1   5  -9    2.20    1.00 
   1   5  -9    2.10    1.10 
   1   5  -9   -0.05    1.22 
   1   5  -9    0.31    1.04 
   1   5  -9    0.50    1.00 
   1   5 -10    0.24    1.05 
   1   5 -10    0.19    0.73 
   1   5 -10    0.74    0.78 
   1   5 -10   -0.44    0.47 
   1   4  10    0.87    0.38 
   1   4  10    1.02    0.38 
   1   4  10    1.89    0.74 
   1   4  10    0.70    0.51 
   1   4   9    8.25    0.97 
   1   4   9    5.74    0.71 
   1   4   9    4.49    0.60 
   1   4   9    4.16    0.58 
   1   4   9    6.96    0.43 
   1   4   9    6.91    0.43 
   1   4   9    7.36    0.46 
   1   4   9   10.99    1.19 
   1   4   9    7.71    0.88 
   1   4   9    7.70    0.59 
   1   4   9    7.53    0.60 
   1   4   9    8.98    1.11 
   1   4   9    7.14    0.89 
   1   4   8    0.60    0.88 
   1   4   8   -0.81    0.65 
   1   4   8   -0.44    0.50 
   1   4   8   -0.21    0.32 
   1   4   8   -0.30    0.51 
   1   4   8    0.15    0.31 
   1   4   8    0.16    0.31 
   1   4   8    0.17    0.34 
   1   4   8    0.99    1.01 
   1   4   8    0.03    0.73 
   1   4   8   -0.15    0.77 
   1   4   8   -0.21    0.67 
   1   4   8    0.20    0.49 
   1   4   8    0.12    0.48 
   1   4   7   15.94    1.16 
   1   4   7   13.99    0.90 
   1   4   7   12.24    0.85 
   1   4   7   12.60    0.85 
   1   4   7   18.23    1.36 
   1   4   7   16.56    1.07 
   1   4   7   19.76    1.34 
   1   4   7   18.65    0.83 
   1   4   7   19.16    0.85 
   1   4   7   19.98    0.68 
   1   4   7   19.25    0.67 
   1   4   7   10.47    0.68 
   1   4   7   18.66    0.60 
   1   4   7   13.13    0.89 
   1   4   7   16.55    1.13 
   1   4   6    0.20    0.53 
   1   4   6    0.16    0.79 
   1   4   6    0.29    0.36 
   1   4   6    0.69    0.38 
   1   4   6   -0.02    0.47 
   1   4   6   -0.14    0.47 
   1   4   6    1.42    0.86 
   1   4   6    0.23    0.62 
   1   4   6    0.33    0.31 
   1   4   6    0.14    0.33 
   1   4   6    0.15    0.46 
   1   4   6    0.41    0.44 
   1   4   6   -0.03    0.47 
   1   4   6    0.28    0.54 
   1   4   6    0.70    0.31 
   1   4   6    0.38    0.31 
   1   4   6    0.38    0.29 
   1   4   6    0.18    0.31 
   1   4   6    0.20    0.41 
   1   4   6    0.65    0.65 
   1   4   5   73.31    2.00 
   1   4   5   58.88    1.64 
   1   4   5   62.22    1.80 
   1   4   5   61.63    1.80 
   1   4   5   61.38    1.94 
   1   4   5   59.94    1.91 
   1   4   5   78.52    2.12 
   1   4   5   74.51    1.63 
   1   4   5   78.83    1.63 
   1   4   5   80.54    1.70 
   1   4   5   80.22    1.70 
   1   4   5   80.68    1.57 
   1   4   5   79.49    1.43 
   1   4   5   81.96    1.57 
   1   4   5   78.28    1.40 
   1   4   5   93.06    2.26 
   1   4   5   71.96    1.88 
   1   4   5   87.32    2.25 
   1   4   4    1.60    0.64 
   1   4   4    1.03    0.53 
   1   4   4    0.98    0.44 
   1   4   4    1.16    0.32 
   1   4   4    1.55    0.35 
   1   4   4    1.95    0.54 
   1   4   4    1.39    0.41 
   1   4   4    1.67    0.29 
   1   4   4    1.80    0.28 
   1   4   4    1.62    0.30 
   1   4   4    1.35    0.28 
   1   4   4    1.80    0.22 
   1   4   4    1.23    0.21 
   1   4   4    1.41    0.49 
   1   4   4    1.34    0.41 
   1   4   4    1.59    0.40 
   1   4   4    1.70    0.35 
   1   4   4    1.34    0.41 
   1   4   4    1.28    0.34 
   1   4   4    1.30    0.36 
   1   4   3    0.80    0.36 
   1   4   3    0.88    0.39 
   1   4   3    0.67    0.55 
   1   4   3    0.73    0.33 
   1   4   3    0.72    0.42 
   1   4   3    0.95    0.23 
   1   4   3    0.73    0.31 
   1   4   3    0.53    0.28 
   1   4   3    0.67    0.29 
   1   4   3    0.60    0.29 
   1   4   3    0.71    0.23 
   1   4   3    1.52    0.43 
   1   4   3    0.74    0.24 
   1   4   3    1.31    0.43 
   1   4   3    0.86    0.50 
   1   4   3    0.72    0.64 
   1   4   3    0.83    0.54 
   1   4   3    1.08    0.47 
   1   4   3    0.63    0.32 
   1   4   3    0.72    0.34 
   1   4   2    2.68    0.56 
   1   4   2    3.43    0.56 
   1   4   2    4.62    0.36 
   1   4   2    6.32    0.77 
   1   4   2    4.83    0.63 
   1   4   2    4.78    0.42 
   1   4   2    5.61    0.37 
   1   4   2    5.31    0.36 
   1   4   2    1.90    0.38 
   1   4   2    5.65    0.69 
   1   4   2    5.91    0.49 
   1   4   2    5.75    0.47 
   1   4   2    4.30    0.84 
   1   4   2    3.98    0.68 
   1   4   2    5.33    0.77 
   1   4   2    1.92    0.68 
   1   4   1    7.97    0.81 
   1   4   1   11.14    0.57 
   1   4   1   10.59    0.56 
   1   4   1    2.95    0.51 
   1   4   1   10.14    0.87 
   1   4   1    8.68    0.84 
   1   4   1    7.29    0.76 
   1   4   1    9.30    0.66 
   1   4   1    5.96    0.92 
   1   4   1    6.28    0.51 
   1   4   1    6.99    0.52 
   1   4   1    6.75    0.48 
   1   4   1    7.11    0.46 
   1   4   1    7.22    0.46 
   1   4   1    8.72    0.70 
   1   4   1   10.49    0.49 
   1   4   1    9.54    0.95 
   1   4   1   11.37    0.52 
   1   4   1    9.68    0.83 
   1   4   1    5.11    0.93 
   1   4   1    7.01    0.97 
   1   4   0   42.95    1.52 
   1   4   0   43.00    1.54 
   1   4   0   37.92    1.55 
   1   4   0   41.98    1.53 
   1   4   0   30.21    1.21 
   1   4   0   34.26    1.18 
   1   4   0   32.57    1.12 
   1   4   0   33.57    1.40 
   1   4   0   34.90    1.62 
   1   4   0   29.81    0.99 
   1   4   0   34.72    0.92 
   1   4   0   29.82    0.97 
   1   4   0   35.18    0.92 
   1   4   0   48.37    1.01 
   1   4   0   45.16    0.99 
   1   4   0   34.87    1.88 
   1   4   0   38.56    1.56 
   1   4   0   22.47    1.55 
   1   4  -1   88.21    2.51 
   1   4  -1   64.38    2.09 
   1   4  -1   64.10    1.97 
   1   4  -1   57.85    1.87 
   1   4  -1   83.54    1.83 
   1   4  -1   89.22    2.43 
   1   4  -1   84.82    2.53 
   1   4  -1   74.17    1.66 
   1   4  -1   75.16    1.67 
   1   4  -1   90.14    1.68 
   1   4  -1   85.81    2.62 
   1   4  -1  106.37    1.79 
   1   4  -1   90.52    1.63 
   1   4  -1   86.54    2.47 
   1   4  -1   85.03    2.50 
   1   4  -2   -0.09    0.91 
   1   4  -2    0.95    0.60 
   1   4  -2   -0.26    0.84 
   1   4  -2    0.25    0.87 
   1   4  -2   -0.11    0.87 
   1   4  -2    2.21    0.52 
   1   4  -2    2.00    0.51 
   1   4  -2    0.17    0.37 
   1   4  -2    0.15    0.28 
   1   4  -2   -0.19    0.45 
   1   4  -2    0.92    0.91 
   1   4  -3    3.36    1.10 
   1   4  -3    1.75    0.55 
   1   4  -3    3.13    1.10 
   1   4  -3    4.41    0.75 
   1   4  -3    3.82    1.05 
   1   4  -3    0.80    0.89 
   1   4  -3    3.79    0.97 
   1   4  -3    4.20    0.90 
   1   4  -3    3.29    0.89 
   1   4  -3    2.37    0.39 
   1   4  -4    9.08    1.39 
   1   4  -4   16.27    0.82 
   1   4  -4   10.97    1.39 
   1   4  -4   20.97    2.41 
   1   4  -4   17.04    1.06 
   1   4  -4   13.90    1.39 
   1   4  -4   18.80    0.89 
   1   4  -4   14.63    0.87 
   1   4  -4    1.30    1.01 
   1   4  -4   11.19    1.23 
   1   4  -4   34.25    2.18 
   1   4  -4   11.54    1.20 
   1   4  -5    0.37    1.07 
   1   4  -5    0.16    0.83 
   1   4  -5    0.24    0.81 
   1   4  -5    0.81    1.07 
   1   4  -5    1.87    1.06 
   1   4  -5    0.86    0.56 
   1   4  -5    0.46    1.08 
   1   4  -5    0.75    0.51 
   1   4  -6   89.47    4.10 
   1   4  -6    0.42    0.86 
   1   4  -6    0.84    0.89 
   1   4  -6    0.22    1.15 
   1   4  -6   69.23    1.42 
   1   4  -6    0.03    1.13 
   1   4  -6    0.55    0.64 
   1   4  -6    1.11    1.27 
   1   4  -6   67.11    3.30 
   1   4  -6    0.55    0.56 
   1   4  -7    2.24    1.44 
   1   4  -7    1.47    0.83 
   1   4  -7  119.51    4.77 
   1   4  -7   52.44    1.86 
   1   4  -7    2.03    1.33 
   1   4  -7  112.35    1.75 
   1   4  -7  111.52    1.76 
   1   4  -7    0.18    1.31 
   1   4  -7    0.58    1.38 
   1   4  -7    2.29    1.05 
   1   4  -7    1.91    1.02 
   1   4  -7    1.87    0.73 
   1   4  -8    2.57    1.43 
   1   4  -8    4.98    1.00 
   1   4  -8   21.38    1.43 
   1   4  -8    3.17    1.48 
   1   4  -8   94.51    1.61 
   1   4  -8   88.44    1.60 
   1   4  -8    3.07    1.43 
   1   4  -8   99.54    4.11 
   1   4  -8    0.41    1.50 
   1   4  -8    6.05    0.88 
   1   4  -8    2.62    1.00 
   1   4  -8    2.28    1.15 
   1   4  -8    3.05    1.04 
   1   4  -9   -0.13    0.92 
   1   4  -9    0.78    1.45 
   1   4  -9    0.36    1.13 
   1   4  -9   -0.33    1.17 
   1   4 -10    1.89    1.04 
   1   4 -10    0.99    1.32 
   1   4 -10    0.18    1.00 
   1   4 -10    0.21    0.66 
   1   4 -10    0.49    0.97 
   1   4 -11    0.04    1.07 
   1   4 -11    0.42    0.74 
   1   4 -11    0.48    0.71 
   1   3  11    0.11    0.44 
   1   3  11    0.13    0.76 
   1   3  11    0.18    0.56 
   1   3  10    7.92    0.52 
   1   3  10    8.84    0.55 
   1   3  10    7.21    0.89 
   1   3  10    6.28    0.70 
   1   3  10    4.85    0.58 
   1   3  10    4.89    0.57 
   1   3  10    7.91    0.42 
   1   3  10    7.46    0.82 
   1   3  10    9.90    1.15 
   1   3   9   15.01    1.46 
   1   3   9    9.03    0.99 
   1   3   9   11.60    0.65 
   1   3   9    9.85    0.52 
   1   3   9   11.71    0.65 
   1   3   9    8.49    0.85 
   1   3   9   11.90    0.54 
   1   3   9   11.61    0.54 
   1   3   9    6.46    0.73 
   1   3   9    6.48    0.72 
   1   3   9    6.87    0.71 
   1   3   9    7.38    0.73 
   1   3   9    7.66    1.00 
   1   3   9    8.99    0.81 
   1   3   9   12.91    1.27 
   1   3   9   11.05    0.95 
   1   3   8   -0.62    0.88 
   1   3   8    0.22    0.53 
   1   3   8   -0.16    0.42 
   1   3   8    0.05    0.36 
   1   3   8   -0.07    0.41 
   1   3   8   -0.25    0.46 
   1   3   8   -0.02    0.44 
   1   3   8   -0.81    0.93 
   1   3   8   -0.12    0.70 
   1   3   8    0.07    0.63 
   1   3   8   -0.42    0.91 
   1   3   8    0.01    0.46 
   1   3   8    0.41    0.46 
   1   3   8   -0.20    0.60 
   1   3   8    0.18    0.51 
   1   3   8   -0.04    0.29 
   1   3   8    0.06    0.28 
   1   3   8    0.07    0.31 
   1   3   8   -0.15    0.61 
   1   3   8    0.28    0.37 
   1   3   7   76.54    2.23 
   1   3   7   78.50    2.31 
   1   3   7   72.53    1.94 
   1   3   7   84.13    2.45 
   1   3   7   95.24    2.59 
   1   3   7   80.42    1.66 
   1   3   7   77.19    1.50 
   1   3   7   81.50    1.67 
   1   3   7   78.94    1.52 
   1   3   7   47.60    1.53 
   1   3   7   83.51    1.47 
   1   3   7   77.99    1.51 
   1   3   7   60.17    1.84 
   1   3   7   56.53    1.89 
   1   3   7   57.30    1.89 
   1   3   7   71.60    2.10 
   1   3   7   54.48    1.98 
   1   3   7   65.88    1.80 
   1   3   6    4.71    0.39 
   1   3   6    6.00    0.57 
   1   3   6    8.75    0.87 
   1   3   6    8.67    0.87 
   1   3   6    7.40    0.44 
   1   3   6    8.57    0.52 
   1   3   6    7.46    0.51 
   1   3   6    8.30    0.40 
   1   3   6    7.41    0.38 
   1   3   6    7.07    0.40 
   1   3   6    8.22    0.42 
   1   3   6    6.35    0.56 
   1   3   6    8.35    0.77 
   1   3   6    7.18    0.73 
   1   3   6    6.04    0.64 
   1   3   6    5.87    0.69 
   1   3   6    6.18    0.57 
   1   3   6    5.47    0.54 
   1   3   5   72.76    1.83 
   1   3   5   91.89    2.14 
   1   3   5   81.63    2.06 
   1   3   5   80.22    2.05 
   1   3   5   78.37    2.14 
   1   3   5   78.98    2.14 
   1   3   5   92.81    2.05 
   1   3   5   98.47    2.34 
   1   3   5  102.46    1.85 
   1   3   5  100.78    1.82 
   1   3   5   90.77    1.73 
   1   3   5   96.53    1.88 
   1   3   5   96.39    1.88 
   1   3   5   92.52    1.75 
   1   3   5   94.47    1.75 
   1   3   5  101.99    1.70 
   1   3   5   97.97    1.77 
   1   3   5   87.69    2.17 
   1   3   5  108.14    2.36 
   1   3   5  102.24    2.25 
   1   3   5  113.02    2.47 
   1   3   5   97.99    2.54 
   1   3   4   11.77    0.56 
   1   3   4   12.63    0.66 
   1   3   4   10.48    0.59 
   1   3   4   10.85    0.60 
   1   3   4   11.73    0.65 
   1   3   4   12.11    0.65 
   1   3   4   12.10    0.65 
   1   3   4   13.09    0.80 
   1   3   4   15.14    0.54 
   1   3   4   14.97    0.52 
   1   3   4   13.44    0.58 
   1   3   4   14.16    0.59 
   1   3   4   12.64    0.46 
   1   3   4   13.16    0.46 
   1   3   4   12.72    0.45 
   1   3   4   14.05    0.37 
   1   3   4   13.04    0.36 
   1   3   4   12.20    0.73 
   1   3   4   13.73    0.87 
   1   3   4   12.72    0.77 
   1   3   4   11.86    0.68 
   1   3   4   15.14    0.81 
   1   3   3   42.32    1.30 
   1   3   3   48.40    1.28 
   1   3   3   42.05    1.08 
   1   3   3   43.89    1.33 
   1   3   3   39.12    1.15 
   1   3   3   38.41    0.86 
   1   3   3   38.18    0.85 
   1   3   3   40.73    1.02 
   1   3   3   40.02    1.01 
   1   3   3   40.51    1.08 
   1   3   3   40.03    1.07 
   1   3   3   27.93    0.70 
   1   3   3   47.89    1.30 
   1   3   3   40.39    0.99 
   1   3   3   40.13    1.16 
   1   3   3   39.31    1.05 
   1   3   3   45.95    1.33 
   1   3   2   11.23    0.77 
   1   3   2   12.09    0.68 
   1   3   2   13.54    0.98 
   1   3   2   13.76    0.82 
   1   3   2   17.68    0.60 
   1   3   2   15.26    0.82 
   1   3   2   10.39    0.69 
   1   3   2   14.43    0.50 
   1   3   2   14.37    0.50 
   1   3   2   14.01    0.49 
   1   3   2   19.80    0.85 
   1   3   2   12.44    0.40 
   1   3   2   14.21    0.70 
   1   3   2   16.59    0.59 
   1   3   2   16.13    0.59 
   1   3   2   12.78    0.62 
   1   3   2   15.99    0.84 
   1   3   1   12.59    0.68 
   1   3   1   15.08    0.53 
   1   3   1   15.69    0.52 
   1   3   1   12.31    0.49 
   1   3   1   16.49    0.89 
   1   3   1   12.74    0.43 
   1   3   1   15.96    0.51 
   1   3   1   13.91    0.79 
   1   3   1   14.29    0.79 
   1   3   1   15.15    0.81 
   1   3   1   13.57    0.83 
   1   3   1    8.69    0.92 
   1   3   1   12.87    0.72 
   1   3   1   13.52    0.98 
   1   3   0   17.57    0.90 
   1   3   0   22.47    1.18 
   1   3   0   25.47    0.69 
   1   3   0   25.27    0.69 
   1   3   0   25.59    0.63 
   1   3   0   28.66    0.68 
   1   3   0   21.29    1.04 
   1   3   0   29.45    1.24 
   1   3   0   20.44    1.07 
   1   3   0   23.56    1.45 
   1   3   0   24.27    1.07 
   1   3   0   21.54    1.04 
   1   3   0   23.15    1.01 
   1   3   0   18.25    1.01 
   1   3  -1   93.09    2.36 
   1   3  -1   99.27    2.58 
   1   3  -1   90.16    2.45 
   1   3  -1  107.72    1.84 
   1   3  -1   94.01    1.79 
   1   3  -1  106.55    2.42 
   1   3  -1  112.20    2.54 
   1   3  -1  104.28    2.39 
   1   3  -1   95.36    2.41 
   1   3  -2  146.61    3.42 
   1   3  -2  172.07    2.83 
   1   3  -2  138.30    3.49 
   1   3  -2  151.11    2.70 
   1   3  -2  185.29    3.61 
   1   3  -2  139.75    3.45 
   1   3  -3    0.18    0.77 
   1   3  -3    0.34    0.42 
   1   3  -3    0.04    0.83 
   1   3  -3   -1.91    1.26 
   1   3  -3    0.33    0.40 
   1   3  -3    0.18    0.24 
   1   3  -3    0.25    0.84 
   1   3  -3    0.04    0.72 
   1   3  -4    8.12    0.97 
   1   3  -4    7.00    0.93 
   1   3  -4    7.87    1.09 
   1   3  -4    9.16    0.66 
   1   3  -4    1.86    1.42 
   1   3  -4    7.03    1.11 
   1   3  -4    4.72    0.86 
   1   3  -4    5.73    0.82 
   1   3  -4   11.35    0.67 
   1   3  -4    2.27    1.01 
   1   3  -4    8.55    0.97 
   1   3  -4    6.12    1.11 
   1   3  -5    2.71    0.79 
   1   3  -5    2.13    0.79 
   1   3  -5    2.85    0.99 
   1   3  -5    4.09    0.63 
   1   3  -5    2.96    0.79 
   1   3  -5    1.85    0.74 
   1   3  -5    2.01    0.99 
   1   3  -5    4.42    0.56 
   1   3  -5    3.48    0.90 
   1   3  -5    2.40    0.97 
   1   3  -6    9.49    1.32 
   1   3  -6    8.39    1.03 
   1   3  -6    7.72    1.00 
   1   3  -6    8.94    1.11 
   1   3  -6    8.28    1.23 
   1   3  -6    8.36    1.35 
   1   3  -6    8.23    0.79 
   1   3  -6    8.46    0.83 
   1   3  -6    9.09    1.10 
   1   3  -7    6.44    1.43 
   1   3  -7    8.25    1.23 
   1   3  -7    6.73    1.20 
   1   3  -7    6.57    0.87 
   1   3  -7    7.13    0.94 
   1   3  -7    9.47    0.90 
   1   3  -7    4.97    1.21 
   1   3  -7    6.26    1.46 
   1   3  -7    6.48    1.14 
   1   3  -7    5.59    1.10 
   1   3  -8    1.03    1.29 
   1   3  -8    0.92    1.29 
   1   3  -8    0.89    1.25 
   1   3  -8    0.34    1.32 
   1   3  -8    2.44    0.76 
   1   3  -8   -0.22    0.85 
   1   3  -8    0.44    0.92 
   1   3  -8    0.62    0.91 
   1   3  -8    1.69    0.95 
   1   3  -9    0.04    1.30 
   1   3  -9   -0.09    1.31 
   1   3  -9   -0.02    1.31 
   1   3  -9    0.04    1.24 
   1   3  -9   -0.34    0.88 
   1   3  -9   -0.24    0.94 
   1   3 -10   -0.16    1.13 
   1   3 -10    0.71    1.14 
   1   3 -10    0.24    1.25 
   1   3 -10    1.00    1.47 
   1   3 -11    1.16    0.99 
   1   3 -11    1.34    1.33 
   1   3 -11    1.67    0.98 
   1   2  12    0.20    0.36 
   1   2  12   -0.01    0.60 
   1   2  12    0.38    0.42 
   1   2  11    1.17    0.38 
   1   2  11    1.07    0.37 
   1   2  11    1.61    0.30 
   1   2  11    0.97    0.65 
   1   2  11    1.82    0.54 
   1   2  11    0.19    0.82 
   1   2  11    1.75    0.62 
   1   2  10    0.51    0.90 
   1   2  10    0.92    0.37 
   1   2  10    0.61    0.37 
   1   2  10    0.55    0.41 
   1   2  10    0.22    0.54 
   1   2  10    0.04    0.40 
   1   2  10    0.79    0.35 
   1   2  10    0.34    0.40 
   1   2  10   -0.11    0.80 
   1   2  10    0.65    0.55 
   1   2  10    0.08    0.94 
   1   2  10   -0.09    0.69 
   1   2   9   14.17    1.31 
   1   2   9   10.09    0.99 
   1   2   9   12.33    0.63 
   1   2   9   11.86    0.59 
   1   2   9   11.75    0.62 
   1   2   9    9.52    0.94 
   1   2   9    6.52    0.83 
   1   2   9   12.24    0.53 
   1   2   9   12.15    0.55 
   1   2   9    7.51    0.74 
   1   2   9    8.33    0.76 
   1   2   9    8.53    0.78 
   1   2   9    8.69    0.79 
   1   2   9   10.58    0.81 
   1   2   9   12.38    1.27 
   1   2   9    9.43    0.94 
   1   2   8   28.31    1.12 
   1   2   8   25.56    1.22 
   1   2   8   25.18    1.21 
   1   2   8   36.50    1.68 
   1   2   8   29.45    1.28 
   1   2   8   42.59    1.92 
   1   2   8   27.14    1.23 
   1   2   8   32.93    1.51 
   1   2   8   33.42    0.95 
   1   2   8   33.80    0.88 
   1   2   8   34.39    0.96 
   1   2   8   29.62    7.72 
   1   2   8   23.97    1.28 
   1   2   8   33.10    0.81 
   1   2   8   32.66    0.80 
   1   2   8   20.45    0.86 
   1   2   8   35.41    0.86 
   1   2   8   22.24    1.20 
   1   2   8   23.92    1.22 
   1   2   8   23.29    1.17 
   1   2   8   24.27    1.06 
   1   2   7    3.60    0.54 
   1   2   7    3.88    0.84 
   1   2   7    3.32    0.64 
   1   2   7    4.63    0.88 
   1   2   7    3.58    0.68 
   1   2   7    3.88    0.54 
   1   2   7    4.27    0.43 
   1   2   7    4.43    0.43 
   1   2   7    4.29    0.44 
   1   2   7    4.01    0.33 
   1   2   7    4.21    0.32 
   1   2   7    3.72    0.32 
   1   2   7    3.90    0.30 
   1   2   7    4.24    0.33 
   1   2   7    4.61    0.39 
   1   2   7    3.37    0.44 
   1   2   7    2.58    0.51 
   1   2   7    2.26    0.50 
   1   2   7    4.57    0.72 
   1   2   7    3.39    0.57 
   1   2   7    3.97    0.53 
   1   2   6  141.25    2.99 
   1   2   6  144.82    2.63 
   1   2   6  151.09    2.66 
   1   2   6  148.22    2.62 
   1   2   6  153.96    2.66 
   1   2   6  161.84    2.66 
   1   2   6  157.39    2.69 
   1   2   6  167.33    2.70 
   1   2   6  149.98    2.76 
   1   2   6  154.38    2.78 
   1   2   6  177.52    3.54 
   1   2   6  159.02    3.16 
   1   2   6  168.32    3.50 
   1   2   6  162.79    3.19 
   1   2   6  162.47    3.34 
   1   2   6  132.02    3.18 
   1   2   5  173.88    3.64 
   1   2   5  214.10    3.89 
   1   2   5  232.52    3.58 
   1   2   5  207.06    3.64 
   1   2   5  206.09    3.64 
   1   2   5  209.77    3.55 
   1   2   5  212.77    3.55 
   1   2   5  217.89    3.53 
   1   2   5  216.88    3.58 
   1   2   5  231.82    4.16 
   1   2   5  192.80    3.98 
   1   2   5  227.03    4.06 
   1   2   5  243.33    4.29 
   1   2   5  228.54    3.99 
   1   2   5  223.01    4.28 
   1   2   5  237.05    4.04 
   1   2   4   42.79    1.29 
   1   2   4   40.43    1.10 
   1   2   4   40.62    1.31 
   1   2   4   38.53    0.81 
   1   2   4   39.45    0.81 
   1   2   4   38.41    0.81 
   1   2   4   38.69    0.83 
   1   2   4   37.34    1.10 
   1   2   4   47.25    1.21 
   1   2   4   41.83    1.23 
   1   2   4   36.58    0.93 
   1   2   4   40.62    1.05 
   1   2   4   37.31    1.10 
   1   2   4   36.49    1.08 
   1   2   4   46.23    1.17 
   1   2   3  373.87    5.89 
   1   2   3  374.72    6.11 
   1   2   3  334.45    5.61 
   1   2   3  355.83    5.74 
   1   2   3  393.88    5.90 
   1   2   3  365.67    6.07 
   1   2   3  313.65    5.82 
   1   2   3  346.85    6.26 
   1   2   3  374.56    5.89 
   1   2   3  377.91    6.04 
   1   2   3  359.28    5.85 
   1   2   3  346.96    5.96 
   1   2   3  349.91    5.88 
   1   2   3  351.03    5.86 
   1   2   2  196.86    3.22 
   1   2   2  196.50    3.21 
   1   2   2  170.48    3.40 
   1   2   2  178.18    3.36 
   1   2   2  204.06    3.41 
   1   2   2  163.95    3.24 
   1   2   2  181.68    3.43 
   1   2   2  194.17    3.17 
   1   2   2  163.05    3.31 
   1   2   2  193.36    3.50 
   1   2   2  182.20    3.28 
   1   2   1  769.35   11.98 
   1   2   1  767.58   11.97 
   1   2   1  744.72   12.52 
   1   2   1  714.87   12.38 
   1   2   1  691.48   12.25 
   1   2   1  783.21   12.37 
   1   2   1  711.31   12.22 
   1   2   1  717.16   12.23 
   1   2   0    1.59    0.19 
   1   2   0    0.19    0.49 
   1   2   0    1.52    0.15 
   1   2   0    1.46    0.15 
   1   2   0    0.61    0.44 
   1   2   0    1.94    0.41 
   1   2   0    1.72    0.40 
   1   2  -1 8232.41  133.92 
   1   2  -1 8836.00  134.41 
   1   2  -1 8800.19  134.41 
   1   2  -1 7902.65  135.05 
   1   2  -2  143.26    3.11 
   1   2  -2  149.25    3.08 
   1   2  -2  159.21    2.61 
   1   2  -2  122.45    2.92 
   1   2  -2  163.39    3.13 
   1   2  -2  151.43    2.50 
   1   2  -2  124.64    2.91 
   1   2  -2  145.67    3.02 
   1   2  -3  306.92    6.00 
   1   2  -3  317.49    5.28 
   1   2  -3  322.79    5.98 
   1   2  -3  339.67    5.47 
   1   2  -3  332.09    5.98 
   1   2  -3  316.38    5.99 
   1   2  -4   69.26    2.18 
   1   2  -4   73.66    2.12 
   1   2  -4   71.61    2.01 
   1   2  -4   73.17    2.18 
   1   2  -5   68.43    2.22 
   1   2  -5   79.59    1.67 
   1   2  -5   64.81    2.11 
   1   2  -5   70.72    2.04 
   1   2  -5   60.47    2.17 
   1   2  -5   51.65    1.42 
   1   2  -5   54.70    1.44 
   1   2  -5   67.71    2.00 
   1   2  -5   71.90    2.01 
   1   2  -6   40.13    1.92 
   1   2  -6   45.60    1.58 
   1   2  -6   49.59    1.42 
   1   2  -6   40.82    1.71 
   1   2  -6   43.21    1.74 
   1   2  -6   38.13    1.80 
   1   2  -6   34.64    1.86 
   1   2  -6   33.10    1.16 
   1   2  -6   32.53    1.13 
   1   2  -6   36.62    1.64 
   1   2  -6   41.20    1.68 
   1   2  -7   16.62    1.60 
   1   2  -7   20.66    1.34 
   1   2  -7   22.64    1.14 
   1   2  -7   12.36    1.25 
   1   2  -7   15.78    1.44 
   1   2  -7   15.63    1.31 
   1   2  -7   12.50    1.19 
   1   2  -7    8.98    1.13 
   1   2  -7   14.44    1.23 
   1   2  -7    5.08    0.95 
   1   2  -7   17.25    1.33 
   1   2  -7   15.44    0.96 
   1   2  -7   14.45    0.92 
   1   2  -8   31.65    1.35 
   1   2  -8   33.62    1.41 
   1   2  -8   32.53    2.26 
   1   2  -8   44.03    2.09 
   1   2  -8   21.40    2.15 
   1   2  -8    6.91    1.76 
   1   2  -8    3.37    1.63 
   1   2  -8   28.34    1.84 
   1   2  -8   16.86    1.58 
   1   2  -8   29.20    2.06 
   1   2  -8   31.86    1.86 
   1   2  -9    4.81    0.98 
   1   2  -9    5.73    1.05 
   1   2  -9    5.22    1.50 
   1   2  -9    8.69    1.37 
   1   2  -9    3.64    1.64 
   1   2  -9    3.72    1.58 
   1   2  -9    3.12    1.39 
   1   2  -9    5.36    1.30 
   1   2  -9    4.71    1.11 
   1   2  -9    5.51    1.13 
   1   2 -10    2.19    1.30 
   1   2 -10    1.89    1.42 
   1   2 -10    2.20    1.36 
   1   2 -10    2.23    0.98 
   1   2 -10    2.12    1.02 
   1   2 -12    1.21    1.28 
   1   1  12   -0.05    0.65 
   1   1  12    0.11    0.47 
   1   1  12    0.17    0.38 
   1   1  11    5.65    0.40 
   1   1  11    6.93    0.64 
   1   1  11    4.87    0.55 
   1   1  11    4.70    0.53 
   1   1  11    6.12    0.75 
   1   1  11    3.23    0.41 
   1   1  10    8.58    0.57 
   1   1  10    9.85    0.95 
   1   1  10   13.51    0.56 
   1   1  10    8.90    0.77 
   1   1  10    8.73    0.76 
   1   1  10    7.76    0.90 
   1   1  10   12.07    0.81 
   1   1   9   14.64    0.87 
   1   1   9   10.77    0.81 
   1   1   9   10.42    0.80 
   1   1   9   14.54    1.36 
   1   1   9   11.16    1.00 
   1   1   9   13.61    1.05 
   1   1   9   12.10    0.94 
   1   1   9   14.34    0.62 
   1   1   9   14.56    0.66 
   1   1   9   15.04    0.62 
   1   1   9   12.20    0.53 
   1   1   9   11.35    0.53 
   1   1   9   16.68    0.63 
   1   1   9   14.48    1.10 
   1   1   9   12.09    0.91 
   1   1   8    5.87    0.64 
   1   1   8    5.78    0.59 
   1   1   8    4.59    0.58 
   1   1   8    4.72    0.57 
   1   1   8    6.27    1.10 
   1   1   8    4.34    0.77 
   1   1   8    6.19    0.71 
   1   1   8    6.97    0.79 
   1   1   8    6.08    0.46 
   1   1   8    6.75    0.52 
   1   1   8    6.46    0.48 
   1   1   8    5.57    0.40 
   1   1   8    5.94    0.39 
   1   1   8    6.82    0.39 
   1   1   8    5.93    0.82 
   1   1   8    5.65    0.67 
   1   1   8    5.37    0.74 
   1   1   7   27.51    1.02 
   1   1   7   29.44    1.46 
   1   1   7   25.66    1.12 
   1   1   7   34.42    1.29 
   1   1   7   30.68    1.27 
   1   1   7   31.00    0.83 
   1   1   7   31.68    0.82 
   1   1   7   32.04    0.84 
   1   1   7   34.42    0.80 
   1   1   7   33.22    0.78 
   1   1   7   30.96    0.72 
   1   1   7   32.63    0.77 
   1   1   7   31.28    0.73 
   1   1   7   28.64    1.13 
   1   1   7   26.75    1.13 
   1   1   7   26.33    1.12 
   1   1   7   32.68    1.36 
   1   1   7   26.94    1.18 
   1   1   7   30.72    1.19 
   1   1   7   29.23    1.24 
   1   1   6    2.29    0.41 
   1   1   6    2.54    0.36 
   1   1   6    3.10    0.51 
   1   1   6    3.34    0.54 
   1   1   6    2.91    0.32 
   1   1   6    3.47    0.36 
   1   1   6    3.08    0.33 
   1   1   6    2.94    0.31 
   1   1   6    3.07    0.24 
   1   1   6    3.48    0.31 
   1   1   6    2.86    0.23 
   1   1   6    3.36    0.26 
   1   1   6    3.17    0.50 
   1   1   6    2.69    0.42 
   1   1   6    2.24    0.40 
   1   1   6    2.87    0.48 
   1   1   6    4.11    0.65 
   1   1   6    3.46    0.52 
   1   1   6    2.44    0.49 
   1   1   5   67.97    1.47 
   1   1   5   77.62    1.62 
   1   1   5   87.94    1.87 
   1   1   5   82.27    1.92 
   1   1   5   85.37    1.45 
   1   1   5   78.52    1.38 
   1   1   5   76.61    1.39 
   1   1   5   77.31    1.37 
   1   1   5   88.48    1.87 
   1   1   5   75.18    1.83 
   1   1   5   74.47    1.72 
   1   1   5   70.77    1.74 
   1   1   5   69.17    1.76 
   1   1   5   69.76    1.76 
   1   1   5   86.91    1.96 
   1   1   5   73.42    1.84 
   1   1   5   71.97    1.69 
   1   1   5   82.18    1.79 
   1   1   4  115.06    2.15 
   1   1   4  136.89    2.26 
   1   1   4  124.55    2.44 
   1   1   4  123.42    2.33 
   1   1   4  112.69    2.03 
   1   1   4  140.14    2.46 
   1   1   4  115.45    2.43 
   1   1   4  133.61    2.43 
   1   1   4  119.59    2.49 
   1   1   4  117.13    2.34 
   1   1   4  121.49    2.28 
   1   1   4  116.88    2.30 
   1   1   3   38.63    0.94 
   1   1   3   37.11    0.88 
   1   1   3   37.07    0.85 
   1   1   3   37.98    0.93 
   1   1   3   38.05    0.91 
   1   1   3   37.52    0.94 
   1   1   3   37.15    0.96 
   1   1   3   34.78    1.04 
   1   1   3   40.23    0.83 
   1   1   3   38.85    0.83 
   1   1   3   41.03    0.99 
   1   1   2   10.38    0.58 
   1   1   2    9.02    0.62 
   1   1   2    8.71    0.53 
   1   1   2   10.20    0.45 
   1   1   2    9.11    0.34 
   1   1   2    8.73    0.39 
   1   1   2    8.43    0.48 
   1   1   2   10.74    0.39 
   1   1   2    8.34    0.35 
   1   1   1    3.71    0.28 
   1   1   1    3.86    0.30 
   1   1   1    3.62    0.37 
   1   1   1    5.07    0.39 
   1   1   1    3.68    0.16 
   1   1   1    4.42    0.23 
   1   1   1    4.66    0.23 
   1   1   0  799.83   12.62 
   1   1   0  783.40   12.61 
   1   1  -1  173.83    2.82 
   1   1  -1  180.84    2.82 
   1   1  -1  150.76    2.69 
   1   1  -1  140.43    2.52 
   1   1  -1  179.91    2.83 
   1   1  -2  694.18    9.07 
   1   1  -2  469.80    8.60 
   1   1  -2  558.56    8.71 
   1   1  -2  605.05    8.89 
   1   1  -2  585.17    8.59 
   1   1  -3   16.09    0.48 
   1   1  -3   15.97    0.61 
   1   1  -4   53.69    1.30 
   1   1  -4   41.08    1.19 
   1   1  -4   59.59    1.65 
   1   1  -4   41.34    1.19 
   1   1  -4   44.45    1.08 
   1   1  -4   61.05    1.24 
   1   1  -4   57.99    1.43 
   1   1  -5   38.39    1.02 
   1   1  -5   37.69    1.00 
   1   1  -5   44.12    1.31 
   1   1  -5   46.39    1.62 
   1   1  -5   30.62    1.14 
   1   1  -5   29.50    1.13 
   1   1  -5   33.66    1.01 
   1   1  -5   40.39    1.36 
   1   1  -5   44.14    1.14 
   1   1  -6   32.45    1.61 
   1   1  -6   32.11    1.61 
   1   1  -6   34.38    1.38 
   1   1  -6   28.00    0.97 
   1   1  -6   28.56    0.98 
   1   1  -6   30.37    1.33 
   1   1  -6   33.95    1.14 
   1   1  -7   65.70    2.55 
   1   1  -7   63.05    2.28 
   1   1  -7   60.02    2.42 
   1   1  -7   61.15    1.64 
   1   1  -7   61.43    1.64 
   1   1  -7   64.58    2.30 
   1   1  -8   -0.49    1.19 
   1   1  -8   -0.67    1.09 
   1   1  -8   -0.07    1.05 
   1   1  -8   -0.69    0.74 
   1   1  -8   -0.06    0.80 
   1   1  -8    0.94    1.01 
   1   1  -8    0.83    1.01 
   1   1  -8   -0.42    0.85 
   1   1  -9   13.51    1.62 
   1   1  -9   19.98    1.80 
   1   1  -9    8.59    1.67 
   1   1  -9   12.59    1.13 
   1   1  -9   13.56    1.21 
   1   1  -9    6.21    1.58 
   1   1  -9    8.73    1.35 
   1   1  -9   11.51    1.42 
   1   1 -10    0.51    1.40 
   1   1 -10   -0.75    0.97 
   1   1 -10   -0.07    1.01 
   1   1 -10   -0.81    1.26 
   1   1 -11    0.47    1.00 
   1   1 -11    1.43    1.08 
   1   1 -11    0.84    1.38 
   1   1 -12   -0.09    1.39 
   1   0  12    0.00    0.25 
   1   0  12   -0.26    0.25 
   1   0  12    0.33    0.37 
   1   0  12   -0.12    0.63 
   1   0  12    0.34    0.46 
   1   0  11    1.22    0.39 
   1   0  11    0.90    0.39 
   1   0  11    1.10    0.52 
   1   0  11    0.22    0.88 
   1   0  11    0.60    0.65 
   1   0  11    0.76    0.39 
   1   0  10    0.63    0.91 
   1   0  10    0.19    0.53 
   1   0  10    0.52    0.47 
   1   0  10    0.62    0.33 
   1   0  10    0.55    0.35 
   1   0  10    0.15    1.03 
   1   0  10    0.25    0.76 
   1   0  10    0.37    0.56 
   1   0  10    0.53    0.46 
   1   0   9   20.27    1.60 
   1   0   9   12.09    1.00 
   1   0   9   12.22    0.93 
   1   0   9   12.27    0.56 
   1   0   9   10.81    0.57 
   1   0   9   13.66    0.87 
   1   0   9   13.58    0.70 
   1   0   9   10.69    0.75 
   1   0   9    9.56    0.71 
   1   0   9   12.49    0.84 
   1   0   9   12.55    0.94 
   1   0   9    7.12    1.28 
   1   0   9    7.04    0.97 
   1   0   8    0.32    0.49 
   1   0   8    0.21    0.85 
   1   0   8    0.16    0.51 
   1   0   8   -0.05    0.51 
   1   0   8    0.03    0.35 
   1   0   8    0.17    0.36 
   1   0   8    0.31    0.48 
   1   0   8    0.30    0.32 
   1   0   8    0.34    0.33 
   1   0   8    0.06    0.93 
   1   0   8   -0.50    0.71 
   1   0   8    0.10    0.44 
   1   0   7    3.07    0.49 
   1   0   7    4.39    0.36 
   1   0   7    4.69    0.36 
   1   0   7    4.17    0.28 
   1   0   7    3.49    0.34 
   1   0   7    4.08    0.56 
   1   0   7    3.47    0.55 
   1   0   7    3.44    0.49 
   1   0   7    3.02    0.43 
   1   0   7    3.22    0.45 
   1   0   7    3.41    0.54 
   1   0   7    3.94    0.62 
   1   0   7    5.37    0.89 
   1   0   7    4.45    0.56 
   1   0   6   58.41    1.14 
   1   0   6   57.86    1.13 
   1   0   6   56.08    1.09 
   1   0   6   57.34    1.11 
   1   0   6   53.39    1.52 
   1   0   6   50.80    1.51 
   1   0   6   52.54    1.49 
   1   0   6   50.89    1.47 
   1   0   6   52.75    1.49 
   1   0   6   61.36    1.60 
   1   0   6   68.31    1.81 
   1   0   6   59.00    1.62 
   1   0   6   57.60    1.55 
   1   0   5   34.53    1.13 
   1   0   5   32.69    1.06 
   1   0   5   29.32    0.98 
   1   0   5   31.97    1.08 
   1   0   5   31.20    0.69 
   1   0   5   31.63    0.68 
   1   0   5   29.00    0.63 
   1   0   5   31.19    0.67 
   1   0   5   29.23    0.98 
   1   0   5   28.82    0.96 
   1   0   5   29.67    0.98 
   1   0   5   28.17    1.01 
   1   0   5   29.52    0.96 
   1   0   5   33.15    1.04 
   1   0   5   26.36    0.71 
   1   0   4    8.75    0.37 
   1   0   4   11.62    0.44 
   1   0   4   11.39    0.61 
   1   0   4   10.48    0.59 
   1   0   4   10.71    0.32 
   1   0   4   10.56    0.51 
   1   0   4   10.74    0.54 
   1   0   4   10.43    0.53 
   1   0   4   10.20    0.55 
   1   0   4   10.28    0.55 
   1   0   4   11.77    0.61 
   1   0   4    9.37    0.51 
   1   0   4   10.90    0.53 
   1   0   3   11.10    0.50 
   1   0   3    9.49    0.38 
   1   0   3   12.20    0.56 
   1   0   3   11.38    0.54 
   1   0   3   10.45    0.47 
   1   0   3   10.82    0.51 
   1   0   3   10.96    0.52 
   1   0   3   11.77    0.37 
   1   0   3   10.12    0.43 
   1   0   2  373.79    6.36 
   1   0   2  363.31    6.30 
   1   0   2  395.31    6.39 
   1   0   2  358.61    6.24 
   1   0   2  406.83    6.17 
   1   0   2  415.29    6.41 
   1   0   2  409.53    6.38 
   1   0   1   92.22    0.87 
   1   0   1   97.00    1.12 
   1   0   1  133.36    1.33 
   1   0   1  127.05    1.24 
   1   0   0   33.02    0.66 
   1   0   0   38.56    0.64 
   1   0  -1  507.30    7.23 
   1   0  -1  439.23    7.18 
   1   0  -2  311.04    4.85 
   1   0  -2  320.56    4.82 
   1   0  -3   79.59    1.43 
   1   0  -3   75.61    1.47 
   1   0  -3   75.73    1.49 
   1   0  -3   74.53    1.47 
   1   0  -3   74.47    1.36 
   1   0  -3   78.36    1.48 
   1   0  -4   94.06    1.93 
   1   0  -4   95.97    1.91 
   1   0  -4   98.07    2.01 
   1   0  -4  100.04    2.06 
   1   0  -4   96.17    2.01 
   1   0  -4  108.05    1.90 
   1   0  -4  108.28    2.05 
   1   0  -5   16.90    1.18 
   1   0  -5   11.44    1.19 
   1   0  -5   15.12    0.70 
   1   0  -5   15.08    0.79 
   1   0  -5   15.71    0.89 
   1   0  -5   15.12    0.80 
   1   0  -5   13.23    0.66 
   1   0  -5   17.13    0.81 
   1   0  -6    2.48    0.76 
   1   0  -6    2.56    0.58 
   1   0  -6    2.59    0.61 
   1   0  -6    2.83    0.56 
   1   0  -6    3.48    0.95 
   1   0  -6    1.98    0.89 
   1   0  -6    2.86    0.50 
   1   0  -7   81.79    1.91 
   1   0  -7   81.37    1.90 
   1   0  -7   66.60    2.77 
   1   0  -7   72.64    2.01 
   1   0  -7   75.83    2.87 
   1   0  -7   70.98    2.22 
   1   0  -7   85.62    2.59 
   1   0  -7   72.57    2.24 
   1   0  -7   85.26    2.49 
   1   0  -8    4.33    0.84 
   1   0  -8    5.41    0.90 
   1   0  -8    2.42    1.35 
   1   0  -8    6.02    1.26 
   1   0  -8    4.10    0.89 
   1   0  -8    2.98    0.83 
   1   0  -8    2.20    1.30 
   1   0  -8    2.61    1.32 
   1   0  -8    3.80    0.92 
   1   0  -9    8.82    1.32 
   1   0  -9    2.58    1.52 
   1   0  -9   11.24    1.62 
   1   0  -9   10.05    1.13 
   1   0  -9    9.05    1.06 
   1   0  -9    3.42    1.53 
   1   0  -9    3.92    1.49 
   1   0 -10    0.75    1.39 
   1   0 -10   -0.43    1.58 
   1   0 -10    1.50    1.02 
   1   0 -10    2.12    1.09 
   1   0 -11    0.83    1.40 
   1   0 -11    2.88    1.06 
   1   0 -11    2.94    1.17 
   1   0 -11   12.82    1.77 
   1   0 -11    8.95    1.69 
   1  -1  12   -0.09    0.62 
   1  -1  12    0.44    0.44 
   1  -1  12   -0.04    0.23 
   1  -1  11    0.02    0.90 
   1  -1  11   -0.07    0.64 
   1  -1  11   -0.03    0.34 
   1  -1  11   -0.03    0.29 
   1  -1  11   -0.17    0.33 
   1  -1  11    0.16    0.31 
   1  -1  10   23.26    1.26 
   1  -1  10   21.72    1.11 
   1  -1  10   23.25    0.72 
   1  -1  10   20.57    0.72 
   1  -1  10   29.88    0.77 
   1  -1  10   11.24    1.07 
   1  -1  10   19.12    1.04 
   1  -1  10   24.26    0.87 
   1  -1  10   27.25    1.09 
   1  -1  10   30.51    1.71 
   1  -1  10   22.64    1.22 
   1  -1   9    4.64    0.55 
   1  -1   9    3.91    0.66 
   1  -1   9    1.89    1.18 
   1  -1   9    2.18    0.88 
   1  -1   9    5.89    1.15 
   1  -1   9    3.68    0.73 
   1  -1   9    4.40    0.54 
   1  -1   9    3.21    0.43 
   1  -1   9    2.71    0.44 
   1  -1   9    2.68    0.45 
   1  -1   9    3.04    0.59 
   1  -1   9    5.03    0.79 
   1  -1   9    3.43    0.60 
   1  -1   8    9.92    1.38 
   1  -1   8   10.24    1.09 
   1  -1   8   36.14    1.82 
   1  -1   8   22.85    1.19 
   1  -1   8   26.72    0.77 
   1  -1   8   21.56    0.70 
   1  -1   8   22.55    0.70 
   1  -1   8   21.29    0.74 
   1  -1   8   26.04    1.16 
   1  -1   8   23.35    1.14 
   1  -1   8   20.78    0.92 
   1  -1   8   20.53    0.91 
   1  -1   8   22.22    1.14 
   1  -1   8   23.39    1.25 
   1  -1   8   25.88    1.20 
   1  -1   8   24.79    0.89 
   1  -1   7   52.27    1.57 
   1  -1   7   52.25    1.11 
   1  -1   7   50.84    1.12 
   1  -1   7   51.83    1.11 
   1  -1   7   55.68    1.09 
   1  -1   7   46.83    0.96 
   1  -1   7   53.20    1.61 
   1  -1   7   49.97    1.47 
   1  -1   7   50.51    1.60 
   1  -1   7   49.35    1.45 
   1  -1   7   54.19    1.65 
   1  -1   7   51.00    1.63 
   1  -1   7   54.02    1.72 
   1  -1   7   49.62    1.48 
   1  -1   6   42.77    0.96 
   1  -1   6   45.93    1.41 
   1  -1   6   45.84    1.48 
   1  -1   6   47.18    0.93 
   1  -1   6   49.21    1.42 
   1  -1   6   45.35    1.39 
   1  -1   6   45.69    1.33 
   1  -1   6   42.77    1.38 
   1  -1   6   44.81    1.31 
   1  -1   6   43.92    1.32 
   1  -1   6   43.63    1.29 
   1  -1   6   44.04    1.30 
   1  -1   5  157.31    2.91 
   1  -1   5  132.19    2.65 
   1  -1   5  129.96    2.30 
   1  -1   5  138.57    2.76 
   1  -1   5  133.27    2.27 
   1  -1   5  133.10    2.26 
   1  -1   5  146.84    2.78 
   1  -1   5  138.33    2.86 
   1  -1   5  142.55    2.83 
   1  -1   5  142.10    2.76 
   1  -1   5  141.62    2.75 
   1  -1   5  130.30    2.63 
   1  -1   5  130.67    2.68 
   1  -1   5  144.24    2.75 
   1  -1   4   80.67    1.68 
   1  -1   4   70.02    1.27 
   1  -1   4   76.91    1.66 
   1  -1   4   75.12    1.65 
   1  -1   4   78.65    1.74 
   1  -1   4   75.44    1.65 
   1  -1   4   80.53    1.79 
   1  -1   4   74.14    1.64 
   1  -1   4   74.57    1.60 
   1  -1   4   70.23    1.53 
   1  -1   4   74.41    1.62 
   1  -1   3  181.09    3.07 
   1  -1   3  180.63    3.06 
   1  -1   3  173.63    3.10 
   1  -1   3  167.01    2.99 
   1  -1   3  189.94    3.27 
   1  -1   3  172.66    3.12 
   1  -1   3  187.54    3.27 
   1  -1   3  169.96    3.10 
   1  -1   3  183.40    3.13 
   1  -1   3  145.79    3.00 
   1  -1   3  167.31    2.97 
   1  -1   2  231.43    3.64 
   1  -1   2  219.64    3.67 
   1  -1   2  214.30    3.83 
   1  -1   2  192.36    3.54 
   1  -1   2  233.59    3.65 
   1  -1   2  218.98    3.55 
   1  -1   2  209.85    3.67 
   1  -1   2  213.03    3.57 
   1  -1   2  208.53    3.57 
   1  -1   1 1943.53   22.58 
   1  -1   1 2027.60   22.71 
   1  -1   1 2074.29   22.60 
   1  -1   1 1973.63   22.83 
   1  -1   1  704.33   22.55 
   1  -1   1  708.56   22.56 
   1  -1   0    0.41    0.15 
   1  -1  -1  811.88   12.73 
   1  -1  -2  185.79    2.87 
   1  -1  -2  161.61    2.86 
   1  -1  -3    2.11    0.31 
   1  -1  -3    1.83    0.20 
   1  -1  -3    2.62    0.26 
   1  -1  -3    2.65    0.24 
   1  -1  -3    3.45    0.51 
   1  -1  -3    3.04    0.29 
   1  -1  -3    2.92    0.48 
   1  -1  -4   21.12    0.81 
   1  -1  -4   21.97    0.82 
   1  -1  -4   22.65    0.75 
   1  -1  -4   23.33    0.76 
   1  -1  -4   21.52    0.68 
   1  -1  -5  166.33    3.25 
   1  -1  -5  166.40    3.26 
   1  -1  -5  160.96    3.14 
   1  -1  -5  156.13    3.01 
   1  -1  -5  167.92    3.11 
   1  -1  -6    3.16    0.64 
   1  -1  -6    3.38    0.63 
   1  -1  -6    1.33    0.97 
   1  -1  -6    1.94    0.69 
   1  -1  -6    2.59    0.96 
   1  -1  -6    2.18    0.98 
   1  -1  -6    3.20    0.53 
   1  -1  -6    3.09    0.55 
   1  -1  -6    3.25    0.41 
   1  -1  -6    3.26    0.42 
   1  -1  -6    3.63    0.50 
   1  -1  -6    3.22    0.52 
   1  -1  -7   -0.15    1.13 
   1  -1  -7    1.50    0.83 
   1  -1  -7    1.69    0.73 
   1  -1  -7    2.14    0.74 
   1  -1  -7    1.07    1.17 
   1  -1  -7    0.97    1.23 
   1  -1  -7    1.55    0.60 
   1  -1  -7    1.63    0.55 
   1  -1  -7    1.74    0.64 
   1  -1  -8    4.50    1.59 
   1  -1  -8    4.07    1.16 
   1  -1  -8    3.35    0.95 
   1  -1  -8    4.03    0.97 
   1  -1  -8    5.52    0.93 
   1  -1  -8    4.23    0.72 
   1  -1  -8    0.77    1.69 
   1  -1  -8    0.50    1.61 
   1  -1  -8    4.08    0.82 
   1  -1  -9    1.89    0.95 
   1  -1  -9    1.29    1.35 
   1  -1  -9    2.06    0.96 
   1  -1  -9    0.97    0.95 
   1  -1  -9    1.72    0.95 
   1  -1  -9    2.92    1.03 
   1  -1  -9   -0.86    1.84 
   1  -1 -10    3.72    1.50 
   1  -1 -10    4.11    1.07 
   1  -1 -10    5.87    1.15 
   1  -1 -11   23.37    2.05 
   1  -1 -11   22.02    2.05 
   1  -1 -11    1.59    1.02 
   1  -1 -11   -0.02    1.08 
   1  -2  12   -0.06    0.54 
   1  -2  12    0.07    0.38 
   1  -2  11    3.46    0.37 
   1  -2  11    3.07    0.36 
   1  -2  11    3.48    0.34 
   1  -2  11    0.33    0.84 
   1  -2  11    1.96    0.63 
   1  -2  11    4.60    0.42 
   1  -2  11    0.27    0.31 
   1  -2  11    3.26    0.32 
   1  -2  10    0.15    1.05 
   1  -2  10    2.62    0.81 
   1  -2  10    6.74    0.75 
   1  -2  10    6.91    0.52 
   1  -2  10    5.93    0.46 
   1  -2  10    6.78    0.45 
   1  -2  10   10.19    0.52 
   1  -2  10    6.05    0.69 
   1  -2  10    6.64    0.80 
   1  -2  10    6.35    0.61 
   1  -2  10    6.81    0.56 
   1  -2   9   -0.36    0.87 
   1  -2   9    0.38    0.46 
   1  -2   9   -0.36    0.48 
   1  -2   9    0.22    0.59 
   1  -2   9   -0.41    0.51 
   1  -2   9   -0.52    0.53 
   1  -2   9   -1.20    1.23 
   1  -2   9   -0.46    0.91 
   1  -2   9    0.14    0.47 
   1  -2   9    0.04    0.52 
   1  -2   9    0.17    0.38 
   1  -2   8   -0.18    0.51 
   1  -2   8   -0.27    1.00 
   1  -2   8    0.70    0.45 
   1  -2   8    0.33    0.21 
   1  -2   8    0.42    0.19 
   1  -2   8   -0.16    0.54 
   1  -2   8    0.73    0.47 
   1  -2   8    0.40    0.45 
   1  -2   8    0.51    0.58 
   1  -2   8    0.12    0.59 
   1  -2   8    0.14    0.36 
   1  -2   7    6.98    0.75 
   1  -2   7    7.57    0.73 
   1  -2   7    6.87    0.54 
   1  -2   7    6.43    0.53 
   1  -2   7    6.50    0.63 
   1  -2   7    7.31    0.46 
   1  -2   7    7.16    0.34 
   1  -2   7    7.61    0.42 
   1  -2   7    7.58    0.30 
   1  -2   7    7.83    0.72 
   1  -2   7    6.70    0.74 
   1  -2   7    9.16    1.07 
   1  -2   7    7.71    0.76 
   1  -2   6    2.12    0.70 
   1  -2   6    1.25    0.47 
   1  -2   6    1.37    0.43 
   1  -2   6    2.03    0.32 
   1  -2   6    2.02    0.29 
   1  -2   6    2.06    0.28 
   1  -2   6    1.80    0.20 
   1  -2   6    1.45    0.39 
   1  -2   6    1.72    0.34 
   1  -2   6    1.47    0.47 
   1  -2   6    1.92    0.35 
   1  -2   6    1.84    0.51 
   1  -2   6    1.54    0.47 
   1  -2   6    1.74    0.27 
   1  -2   5   15.55    0.88 
   1  -2   5   11.99    0.71 
   1  -2   5   15.51    0.80 
   1  -2   5   13.16    0.45 
   1  -2   5   12.82    0.43 
   1  -2   5   13.82    0.42 
   1  -2   5   13.13    0.42 
   1  -2   5   12.43    0.65 
   1  -2   5   15.32    0.86 
   1  -2   5   13.70    0.68 
   1  -2   5   12.51    0.65 
   1  -2   5   13.06    0.72 
   1  -2   5   14.41    0.85 
   1  -2   4  205.57    3.66 
   1  -2   4  219.76    3.98 
   1  -2   4  211.89    3.62 
   1  -2   4  199.04    3.67 
   1  -2   4  196.29    3.64 
   1  -2   4  178.56    3.52 
   1  -2   4  193.26    3.56 
   1  -2   4  217.58    3.92 
   1  -2   4  197.49    3.25 
   1  -2   4  194.53    3.24 
   1  -2   4  188.59    3.21 
   1  -2   4  233.60    3.83 
   1  -2   4  189.17    3.43 
   1  -2   4  238.61    3.83 
   1  -2   4  203.51    3.67 
   1  -2   3    0.23    0.46 
   1  -2   3    0.17    0.32 
   1  -2   3    0.34    0.54 
   1  -2   3    0.03    0.33 
   1  -2   3   -0.20    0.40 
   1  -2   3    0.23    0.32 
   1  -2   3    0.18    0.34 
   1  -2   3    0.30    0.41 
   1  -2   3    0.16    0.38 
   1  -2   3    0.12    0.33 
   1  -2   3    0.27    0.29 
   1  -2   2  109.72    1.94 
   1  -2   2  100.07    2.02 
   1  -2   2  108.36    2.19 
   1  -2   2  111.34    2.20 
   1  -2   2  113.36    2.20 
   1  -2   2  107.48    1.96 
   1  -2   2  110.63    2.39 
   1  -2   2  103.71    2.02 
   1  -2   1  129.58    1.50 
   1  -2   1  127.86    1.35 
   1  -2   1  111.76    1.37 
   1  -2   1  122.07    1.31 
   1  -2   1  113.46    1.07 
   1  -2   1  127.06    1.18 
   1  -2   1  112.75    1.06 
   1  -2   1  108.38    1.68 
   1  -2   0  115.22    2.16 
   1  -2   0  132.53    2.29 
   1  -2   0  141.44    2.42 
   1  -2   0  121.85    2.19 
   1  -2   0  111.82    1.97 
   1  -2   0  118.22    2.18 
   1  -2   0  151.43    2.58 
   1  -2   0  155.22    2.60 
   1  -2  -1  103.74    1.99 
   1  -2  -1  102.04    1.98 
   1  -2  -1  106.43    2.05 
   1  -2  -1  100.37    2.17 
   1  -2  -2  314.03    5.41 
   1  -2  -2  319.55    5.15 
   1  -2  -2  312.32    5.45 
   1  -2  -3   32.34    0.85 
   1  -2  -3   30.74    1.12 
   1  -2  -3   30.41    1.12 
   1  -2  -3   32.84    0.86 
   1  -2  -3   30.57    0.75 
   1  -2  -4    0.99    0.73 
   1  -2  -4   -0.06    0.48 
   1  -2  -4    0.27    0.32 
   1  -2  -4    0.01    0.31 
   1  -2  -4    0.58    0.74 
   1  -2  -4    0.10    0.33 
   1  -2  -4    0.21    0.41 
   1  -2  -4    0.18    0.76 
   1  -2  -4    0.43    0.31 
   1  -2  -5   -0.03    0.46 
   1  -2  -5   -0.08    0.48 
   1  -2  -5   -0.15    0.29 
   1  -2  -5   -0.07    0.35 
   1  -2  -5   -0.38    0.77 
   1  -2  -5    0.15    0.36 
   1  -2  -5   -0.14    0.41 
   1  -2  -5   -0.55    0.81 
   1  -2  -6    1.96    0.65 
   1  -2  -6    1.94    0.66 
   1  -2  -6    1.61    0.43 
   1  -2  -6    1.70    0.42 
   1  -2  -6    1.47    0.51 
   1  -2  -6    2.12    0.56 
   1  -2  -6    1.73    0.48 
   1  -2  -7  132.70    3.32 
   1  -2  -7  139.02    3.57 
   1  -2  -7  121.98    4.40 
   1  -2  -7  133.81    2.67 
   1  -2  -7  130.67    2.67 
   1  -2  -7  146.21    2.96 
   1  -2  -7  142.37    3.61 
   1  -2  -7  120.73    3.08 
   1  -2  -7  140.96    3.32 
   1  -2  -8   -0.19    0.98 
   1  -2  -8    0.31    0.99 
   1  -2  -8   -0.06    1.71 
   1  -2  -8    0.63    0.65 
   1  -2  -8    0.06    0.60 
   1  -2  -8    0.12    0.78 
   1  -2  -8    0.87    0.79 
   1  -2  -8   -0.16    0.79 
   1  -2  -8   -1.46    1.73 
   1  -2  -8    1.04    1.74 
   1  -2  -9   13.14    2.73 
   1  -2  -9    8.15    3.31 
   1  -2  -9   52.56    2.49 
   1  -2  -9   51.05    2.89 
   1  -2  -9   52.50    2.49 
   1  -2  -9   61.04    2.03 
   1  -2  -9   55.68    1.93 
   1  -2  -9   51.75    1.84 
   1  -2 -10   10.43    1.32 
   1  -2 -10   11.42    1.23 
   1  -2 -10   10.30    1.75 
   1  -2 -11   18.56    2.05 
   1  -2 -11   16.59    2.04 
   1  -2 -11   -0.39    0.99 
   1  -2 -11   -0.48    1.07 
   1  -3  12    0.18    0.19 
   1  -3  11    3.77    0.37 
   1  -3  11    4.00    0.45 
   1  -3  10    0.58    0.37 
   1  -3  10   -0.17    0.42 
   1  -3  10    0.09    0.45 
   1  -3  10   -0.05    0.50 
   1  -3  10    0.17    0.46 
   1  -3   9   28.95    1.38 
   1  -3   9   29.00    0.87 
   1  -3   9   32.21    0.88 
   1  -3   9   24.15    0.67 
   1  -3   9   33.59    0.87 
   1  -3   9   34.21    0.85 
   1  -3   9   25.14    0.62 
   1  -3   9   31.71    1.35 
   1  -3   9   28.93    1.35 
   1  -3   9   27.81    1.33 
   1  -3   9   27.92    1.20 
   1  -3   9   36.00    1.10 
   1  -3   8    1.28    0.62 
   1  -3   8    0.64    0.49 
   1  -3   8   -0.02    0.68 
   1  -3   8   -0.23    0.47 
   1  -3   8    1.08    0.24 
   1  -3   8   -0.25    0.40 
   1  -3   8   -0.07    0.42 
   1  -3   8    0.33    0.23 
   1  -3   8   -0.12    0.53 
   1  -3   8    1.09    0.53 
   1  -3   8    1.38    0.48 
   1  -3   8    0.27    0.56 
   1  -3   8    0.46    0.37 
   1  -3   7    3.74    0.66 
   1  -3   7    2.75    0.51 
   1  -3   7    4.16    0.60 
   1  -3   7    3.20    0.84 
   1  -3   7    3.50    0.67 
   1  -3   7    2.54    0.42 
   1  -3   7    3.60    0.41 
   1  -3   7    3.34    0.39 
   1  -3   7    3.43    0.30 
   1  -3   7    3.73    0.38 
   1  -3   7    3.85    0.27 
   1  -3   7    3.92    0.63 
   1  -3   7    3.37    0.61 
   1  -3   7    3.41    0.62 
   1  -3   7    3.41    0.59 
   1  -3   6    7.02    0.72 
   1  -3   6    6.32    0.90 
   1  -3   6    6.15    0.65 
   1  -3   6    6.73    0.43 
   1  -3   6    6.37    0.33 
   1  -3   6    6.31    0.37 
   1  -3   6    6.34    0.36 
   1  -3   6    6.37    0.38 
   1  -3   6    6.33    0.29 
   1  -3   6    5.44    0.55 
   1  -3   6    6.93    0.74 
   1  -3   6    6.68    0.73 
   1  -3   6    5.82    0.50 
   1  -3   6    5.28    0.48 
   1  -3   6    6.11    0.62 
   1  -3   6    6.47    0.67 
   1  -3   6    6.52    0.68 
   1  -3   6    5.23    0.47 
   1  -3   5    2.41    0.51 
   1  -3   5    2.06    0.55 
   1  -3   5    2.45    0.63 
   1  -3   5    2.06    0.45 
   1  -3   5    1.94    0.31 
   1  -3   5    1.11    0.27 
   1  -3   5    1.27    0.26 
   1  -3   5    1.97    0.26 
   1  -3   5    1.68    0.20 
   1  -3   5    1.75    0.39 
   1  -3   5    1.39    0.34 
   1  -3   5    1.79    0.60 
   1  -3   5    1.60    0.35 
   1  -3   5    1.86    0.43 
   1  -3   5    2.39    0.53 
   1  -3   5    1.88    0.44 
   1  -3   5    1.81    0.44 
   1  -3   4  122.23    2.47 
   1  -3   4  146.97    2.81 
   1  -3   4  116.27    2.41 
   1  -3   4  163.26    3.01 
   1  -3   4  127.70    2.57 
   1  -3   4  114.92    2.12 
   1  -3   4  124.09    2.13 
   1  -3   4  123.63    2.12 
   1  -3   4  128.36    2.11 
   1  -3   4  114.60    2.42 
   1  -3   4  130.80    2.53 
   1  -3   4  139.17    3.01 
   1  -3   4  112.04    2.54 
   1  -3   4  143.61    2.94 
   1  -3   4  115.96    2.54 
   1  -3   4  128.21    2.58 
   1  -3   4  122.87    2.47 
   1  -3   4  124.52    6.28 
   1  -3   3    0.40    0.56 
   1  -3   3    0.53    0.39 
   1  -3   3    1.13    0.53 
   1  -3   3    1.04    0.58 
   1  -3   3    0.73    0.50 
   1  -3   3    1.03    0.64 
   1  -3   3    1.46    0.20 
   1  -3   3    1.01    0.32 
   1  -3   3    1.09    0.69 
   1  -3   3    0.93    0.43 
   1  -3   3    1.47    0.42 
   1  -3   3    0.51    0.38 
   1  -3   2   84.64    1.73 
   1  -3   2   80.93    1.85 
   1  -3   2   80.36    1.97 
   1  -3   2   78.01    2.01 
   1  -3   2   75.35    1.98 
   1  -3   2   87.42    2.14 
   1  -3   2   84.24    1.43 
   1  -3   2   87.47    1.62 
   1  -3   2   79.25    1.78 
   1  -3   2   93.44    1.78 
   1  -3   2   85.52    1.71 
   1  -3   1   18.81    0.97 
   1  -3   1   21.10    1.03 
   1  -3   1   21.31    0.65 
   1  -3   1   22.43    0.64 
   1  -3   1   23.61    0.57 
   1  -3   1   25.74    0.48 
   1  -3   1   21.01    0.87 
   1  -3   1   22.79    0.78 
   1  -3   1   21.81    0.84 
   1  -3   0   60.25    1.32 
   1  -3   0   62.53    1.68 
   1  -3   0   56.21    1.47 
   1  -3   0   51.67    1.37 
   1  -3   0   52.67    1.37 
   1  -3   0   53.81    1.68 
   1  -3   0   54.71    1.68 
   1  -3   0   61.98    1.97 
   1  -3  -1  353.21    7.02 
   1  -3  -1  415.35    7.24 
   1  -3  -1  443.00    6.87 
   1  -3  -1  364.54    6.97 
   1  -3  -1  378.32    6.96 
   1  -3  -1  453.01    7.39 
   1  -3  -1  451.41    7.42 
   1  -3  -1  543.51    7.81 
   1  -3  -2  131.57    3.03 
   1  -3  -2  154.76    3.25 
   1  -3  -2  150.98    3.25 
   1  -3  -2  153.07    3.27 
   1  -3  -2  130.77    2.99 
   1  -3  -2  136.36    2.99 
   1  -3  -2  164.68    2.76 
   1  -3  -3  112.02    2.14 
   1  -3  -3   88.97    2.49 
   1  -3  -3  111.55    2.28 
   1  -3  -3   90.44    2.46 
   1  -3  -3  122.60    2.35 
   1  -3  -3   90.96    2.52 
   1  -3  -3  106.80    2.77 
   1  -3  -4    1.10    0.38 
   1  -3  -4    0.84    0.79 
   1  -3  -4    0.25    0.80 
   1  -3  -4    1.02    0.45 
   1  -3  -4    0.84    0.39 
   1  -3  -4    1.08    0.40 
   1  -3  -4    0.18    0.83 
   1  -3  -4    1.13    0.78 
   1  -3  -5    5.98    0.75 
   1  -3  -5    5.22    0.39 
   1  -3  -5    3.04    1.07 
   1  -3  -5    3.54    0.99 
   1  -3  -5    5.21    0.56 
   1  -3  -5    5.33    0.55 
   1  -3  -5    6.70    0.77 
   1  -3  -5    5.67    0.58 
   1  -3  -5    5.34    0.55 
   1  -3  -5    2.75    0.97 
   1  -3  -5    5.80    0.66 
   1  -3  -5    3.77    1.07 
   1  -3  -6   51.90    1.61 
   1  -3  -6   35.15    2.32 
   1  -3  -6   58.79    1.90 
   1  -3  -6   36.27    2.29 
   1  -3  -6   52.95    2.03 
   1  -3  -6   46.07    2.45 
   1  -3  -6   57.71    2.09 
   1  -3  -6   49.77    1.71 
   1  -3  -7  127.83    3.47 
   1  -3  -7  142.95    3.92 
   1  -3  -7  137.75    3.57 
   1  -3  -7  136.67    2.89 
   1  -3  -7  139.11    2.92 
   1  -3  -7  144.09    3.93 
   1  -3  -7  152.38    3.24 
   1  -3  -8  122.57    3.56 
   1  -3  -8   79.40    4.25 
   1  -3  -8   74.08    4.13 
   1  -3  -8  145.01    4.16 
   1  -3  -8   85.66    4.79 
   1  -3  -8   91.66    4.99 
   1  -3  -8  137.91    3.69 
   1  -3  -8  132.19    2.87 
   1  -3  -8  132.41    2.85 
   1  -3  -8  150.59    4.22 
   1  -3  -8  138.47    3.23 
   1  -3  -9   -0.18    0.72 
   1  -3  -9    0.41    0.73 
   1  -3  -9    1.14    0.93 
   1  -3  -9   -0.15    2.12 
   1  -3  -9    0.95    1.33 
   1  -3  -9    1.51    1.15 
   1  -3  -9    0.75    1.14 
   1  -3 -10    1.28    0.90 
   1  -3 -10    1.53    1.06 
   1  -3 -10    1.85    1.13 
   1  -3 -11   -0.40    0.95 
   1  -3 -11   -0.32    1.01 
   1  -4  11    1.11    0.23 
   1  -4  11    0.84    0.24 
   1  -4  11    1.48    0.26 
   1  -4  11    1.33    0.29 
   1  -4  10    2.35    0.33 
   1  -4  10    2.83    0.37 
   1  -4  10    3.37    0.45 
   1  -4  10    2.77    0.48 
   1  -4   9   40.47    1.49 
   1  -4   9   43.41    1.01 
   1  -4   9   31.14    0.80 
   1  -4   9   43.63    0.99 
   1  -4   9   32.70    0.74 
   1  -4   9   47.12    1.21 
   1  -4   9   36.77    1.47 
   1  -4   8   -0.14    0.44 
   1  -4   8   -0.24    0.55 
   1  -4   8    0.54    0.38 
   1  -4   8   -0.01    0.23 
   1  -4   8    0.73    0.36 
   1  -4   8    0.60    0.38 
   1  -4   8   -0.28    0.24 
   1  -4   8   -0.26    0.49 
   1  -4   8    0.19    0.53 
   1  -4   8    0.17    0.36 
   1  -4   8    0.46    0.57 
   1  -4   7    3.45    0.42 
   1  -4   7    3.53    0.66 
   1  -4   7    2.78    0.38 
   1  -4   7    4.29    0.70 
   1  -4   7    3.79    0.66 
   1  -4   7    4.43    0.66 
   1  -4   7    4.50    0.65 
   1  -4   7    2.82    0.29 
   1  -4   7    3.22    0.43 
   1  -4   7    4.91    0.42 
   1  -4   7    4.69    0.44 
   1  -4   7    4.34    0.32 
   1  -4   7    3.90    0.28 
   1  -4   7    3.53    0.58 
   1  -4   7    2.95    0.66 
   1  -4   6    8.13    0.75 
   1  -4   6    6.09    0.54 
   1  -4   6    7.88    0.78 
   1  -4   6    6.68    0.69 
   1  -4   6    8.66    0.78 
   1  -4   6    6.45    0.36 
   1  -4   6    6.66    0.46 
   1  -4   6    6.89    0.42 
   1  -4   6    6.83    0.41 
   1  -4   6    7.00    0.37 
   1  -4   6    6.41    0.42 
   1  -4   6    7.18    0.33 
   1  -4   6    7.43    0.72 
   1  -4   6    5.58    0.56 
   1  -4   5   37.58    1.28 
   1  -4   5   47.62    1.51 
   1  -4   5   36.88    1.17 
   1  -4   5   34.67    1.09 
   1  -4   5   33.11    0.82 
   1  -4   5   37.91    0.83 
   1  -4   5   37.49    0.81 
   1  -4   5   37.06    1.27 
   1  -4   5   32.63    1.09 
   1  -4   5   42.35    1.25 
   1  -4   5   28.04    1.07 
   1  -4   5   29.17    1.07 
   1  -4   5   42.63    1.50 
   1  -4   5   31.94    1.08 
   1  -4   5   39.61    1.40 
   1  -4   4    7.64    0.52 
   1  -4   4    8.57    0.76 
   1  -4   4    7.92    0.39 
   1  -4   4    7.64    0.37 
   1  -4   4    8.35    0.35 
   1  -4   4    8.98    0.32 
   1  -4   4    8.16    0.65 
   1  -4   4    7.83    0.57 
   1  -4   4    9.77    0.85 
   1  -4   4    8.55    0.61 
   1  -4   4   10.13    0.78 
   1  -4   4    8.41    0.68 
   1  -4   4    7.51    0.62 
   1  -4   4    7.71    0.63 
   1  -4   3   95.71    2.09 
   1  -4   3   99.08    2.52 
   1  -4   3  104.79    1.89 
   1  -4   3  110.89    1.87 
   1  -4   3  110.19    1.87 
   1  -4   3  102.18    1.82 
   1  -4   3  111.40    2.34 
   1  -4   3  105.37    2.29 
   1  -4   3  121.19    2.74 
   1  -4   3  107.52    2.32 
   1  -4   3  110.98    2.54 
   1  -4   3  112.64    2.50 
   1  -4   3  108.55    2.47 
   1  -4   2   91.97    1.60 
   1  -4   2   90.49    1.53 
   1  -4   2   97.58    1.97 
   1  -4   2   89.09    1.95 
   1  -4   2   88.91    1.93 
   1  -4   2   79.09    1.93 
   1  -4   2   84.54    2.09 
   1  -4   2   84.30    2.22 
   1  -4   2   92.01    2.33 
   1  -4   2   90.05    2.30 
   1  -4   2   95.63    2.36 
   1  -4   1   87.75    1.18 
   1  -4   1   87.96    1.10 
   1  -4   1   88.62    1.63 
   1  -4   1   74.80    1.53 
   1  -4   1   73.47    1.66 
   1  -4   1   64.33    1.53 
   1  -4   1   74.06    1.94 
   1  -4   1   65.15    1.84 
   1  -4   1    3.49    1.19 
   1  -4   1    2.87    1.14 
   1  -4   1   61.75    1.67 
   1  -4   1   86.93    2.24 
   1  -4   0   40.09    4.13 
   1  -4   0   -7.05    8.32 
   1  -4   0  -16.92    9.53 
   1  -4   0   63.70    0.95 
   1  -4   0   46.53    1.30 
   1  -4   0   46.36    1.51 
   1  -4   0   64.30    1.42 
   1  -4   0   44.00    1.57 
   1  -4   0    1.34    1.52 
   1  -4   0   38.37    1.28 
   1  -4   0   48.64    1.34 
   1  -4  -1   33.29    1.57 
   1  -4  -1   33.48    1.55 
   1  -4  -1   38.05    1.43 
   1  -4  -1   39.05    1.91 
   1  -4  -1   32.57    1.28 
   1  -4  -1   37.74    1.32 
   1  -4  -2   97.28    2.73 
   1  -4  -2  100.68    2.77 
   1  -4  -2  119.32    2.21 
   1  -4  -2   71.98    2.35 
   1  -4  -2   93.56    2.63 
   1  -4  -2  112.53    2.36 
   1  -4  -2   63.26    2.15 
   1  -4  -2   86.56    2.35 
   1  -4  -2  115.22    2.19 
   1  -4  -2  137.81    3.42 
   1  -4  -3    2.54    0.49 
   1  -4  -3    2.22    0.84 
   1  -4  -3    1.43    0.74 
   1  -4  -3    2.61    0.51 
   1  -4  -3    2.22    0.42 
   1  -4  -3    1.92    0.77 
   1  -4  -3    1.38    0.77 
   1  -4  -4    8.84    1.58 
   1  -4  -4    4.79    1.08 
   1  -4  -4    5.38    1.05 
   1  -4  -4    8.06    0.73 
   1  -4  -4    6.03    1.13 
   1  -4  -4    4.20    0.96 
   1  -4  -4    8.70    0.72 
   1  -4  -4    7.95    0.62 
   1  -4  -4    5.33    1.02 
   1  -4  -4    4.56    1.00 
   1  -4  -4    8.80    0.50 
   1  -4  -5   52.94    1.26 
   1  -4  -5   51.51    2.01 
   1  -4  -5   50.23    1.23 
   1  -4  -5   48.60    1.72 
   1  -4  -5   44.73    2.27 
   1  -4  -5   44.01    2.43 
   1  -4  -5   49.34    1.55 
   1  -4  -5   46.01    2.30 
   1  -4  -5   50.29    1.84 
   1  -4  -5   39.08    2.18 
   1  -4  -5   50.33    1.69 
   1  -4  -5   53.30    2.03 
   1  -4  -5   37.61    2.18 
   1  -4  -5   47.30    1.67 
   1  -4  -5   37.26    2.15 
   1  -4  -6    0.37    0.90 
   1  -4  -6    0.20    0.89 
   1  -4  -6    1.41    1.31 
   1  -4  -6   -0.13    0.63 
   1  -4  -6    0.96    1.22 
   1  -4  -6    0.01    0.46 
   1  -4  -6    0.04    0.59 
   1  -4  -6   -0.17    1.29 
   1  -4  -6    0.56    1.38 
   1  -4  -6    0.31    0.58 
   1  -4  -6    0.16    0.60 
   1  -4  -6    1.21    1.28 
   1  -4  -6    1.59    1.33 
   1  -4  -6    0.31    0.75 
   1  -4  -7  181.80    4.66 
   1  -4  -7  172.65    6.58 
   1  -4  -7   95.95    4.48 
   1  -4  -7  102.11    4.53 
   1  -4  -7  139.09    3.80 
   1  -4  -7  167.44    3.32 
   1  -4  -7  171.25    3.36 
   1  -4  -7  189.25    3.79 
   1  -4  -7  110.28    4.84 
   1  -4  -7  175.81    4.63 
   1  -4  -7  106.24    4.67 
   1  -4  -7  110.38    4.68 
   1  -4  -7  171.00    4.22 
   1  -4  -8   11.93    1.61 
   1  -4  -8   12.31    0.98 
   1  -4  -8   11.41    0.99 
   1  -4  -8   12.70    1.60 
   1  -4  -8   13.47    1.28 
   1  -4  -9    5.82    0.84 
   1  -4  -9    6.89    0.88 
   1  -4  -9    8.44    1.16 
   1  -4  -9    8.04    1.45 
   1  -4  -9    6.76    1.49 
   1  -4  -9    7.95    1.40 
   1  -4 -10    1.18    0.89 
   1  -5  11    0.09    0.37 
   1  -5  11    0.03    0.21 
   1  -5  10    1.73    0.27 
   1  -5  10    1.80    0.29 
   1  -5  10    2.23    0.34 
   1  -5   9    1.61    0.18 
   1  -5   9    2.05    0.51 
   1  -5   9    1.99    0.33 
   1  -5   9    2.08    0.35 
   1  -5   8    6.69    0.47 
   1  -5   8    6.07    0.44 
   1  -5   8    6.09    0.30 
   1  -5   8    5.46    0.68 
   1  -5   8    7.05    0.66 
   1  -5   8    4.97    0.65 
   1  -5   7    0.78    0.49 
   1  -5   7    1.07    0.25 
   1  -5   7    0.81    0.35 
   1  -5   7    0.05    0.25 
   1  -5   7    0.56    0.37 
   1  -5   7    0.30    0.22 
   1  -5   7    0.76    0.47 
   1  -5   7    0.50    0.44 
   1  -5   7    1.99    0.63 
   1  -5   7    0.44    0.32 
   1  -5   7    0.55    0.51 
   1  -5   6    1.00    0.48 
   1  -5   6    0.60    0.28 
   1  -5   6    0.64    0.31 
   1  -5   6    0.61    0.20 
   1  -5   6    0.45    0.20 
   1  -5   6    1.06    0.33 
   1  -5   6    1.13    0.51 
   1  -5   6    0.72    0.50 
   1  -5   6    0.78    0.38 
   1  -5   6    0.76    0.48 
   1  -5   6   -0.11    0.59 
   1  -5   6    0.53    0.40 
   1  -5   5    4.55    0.62 
   1  -5   5    6.15    0.74 
   1  -5   5    4.20    0.58 
   1  -5   5    3.82    0.50 
   1  -5   5    5.40    0.37 
   1  -5   5    5.14    0.41 
   1  -5   5    4.89    0.39 
   1  -5   5    5.35    0.57 
   1  -5   5    5.70    0.73 
   1  -5   5    5.23    0.65 
   1  -5   5    4.51    0.55 
   1  -5   5    4.22    0.61 
   1  -5   4   19.02    1.06 
   1  -5   4   16.11    0.95 
   1  -5   4   14.88    0.88 
   1  -5   4   18.26    0.55 
   1  -5   4   18.05    0.57 
   1  -5   4   17.53    0.49 
   1  -5   4   19.05    0.56 
   1  -5   4   19.79    1.27 
   1  -5   4   17.28    0.83 
   1  -5   4   18.32    1.12 
   1  -5   4   15.65    0.99 
   1  -5   4   17.48    0.92 
   1  -5   4   16.50    0.85 
   1  -5   3   27.52    0.68 
   1  -5   3   27.73    0.63 
   1  -5   3   23.30    1.16 
   1  -5   3   28.14    1.46 
   1  -5   3   26.53    1.28 
   1  -5   3   24.65    0.99 
   1  -5   3   25.50    1.07 
   1  -5   3   26.61    1.20 
   1  -5   3   24.10    1.20 
   1  -5   3   23.78    1.17 
   1  -5   2    3.39    0.27 
   1  -5   2    3.28    0.24 
   1  -5   2    2.05    0.57 
   1  -5   2    2.91    0.78 
   1  -5   2    1.76    0.68 
   1  -5   2    3.20    0.66 
   1  -5   2    1.99    0.74 
   1  -5   2    2.35    0.47 
   1  -5   2    2.94    0.46 
   1  -5   2    2.55    0.64 
   1  -5   1   15.92    1.02 
   1  -5   1   23.06    1.58 
   1  -5   1   21.57    1.48 
   1  -5   1   17.07    1.10 
   1  -5   1   23.72    0.61 
   1  -5   1   23.93    0.54 
   1  -5   1   25.42    0.62 
   1  -5   1   17.26    0.82 
   1  -5   1   17.68    1.25 
   1  -5   1   16.11    0.83 
   1  -5   1   24.84    0.97 
   1  -5   1   21.37    1.25 
   1  -5   1   10.12    0.83 
   1  -5   0   10.54    0.94 
   1  -5   0    8.09    1.30 
   1  -5   0    7.33    1.21 
   1  -5   0   10.57    0.95 
   1  -5   0   20.81    0.55 
   1  -5   0   19.07    0.52 
   1  -5   0   19.29    0.46 
   1  -5   0   11.63    0.72 
   1  -5   0   10.07    0.87 
   1  -5   0   19.04    0.85 
   1  -5   0    7.71    0.88 
   1  -5   0   13.16    1.35 
   1  -5  -1    0.66    0.62 
   1  -5  -1    1.63    0.41 
   1  -5  -1    2.61    0.54 
   1  -5  -1    1.56    0.53 
   1  -5  -1    1.86    0.42 
   1  -5  -1    1.82    0.44 
   1  -5  -1    0.41    0.69 
   1  -5  -1    1.41    0.67 
   1  -5  -1    0.92    0.45 
   1  -5  -1    1.78    0.48 
   1  -5  -1    2.02    0.29 
   1  -5  -2   10.99    0.43 
   1  -5  -2    9.49    0.40 
   1  -5  -2   10.97    0.70 
   1  -5  -2    9.79    0.71 
   1  -5  -2    3.02    0.70 
   1  -5  -2    3.76    0.70 
   1  -5  -2   10.79    0.80 
   1  -5  -2    4.05    0.96 
   1  -5  -2    3.49    0.80 
   1  -5  -2   -1.58    1.42 
   1  -5  -2   10.93    0.71 
   1  -5  -3    2.44    0.49 
   1  -5  -3   -0.40    0.71 
   1  -5  -3    0.24    0.68 
   1  -5  -3    2.70    0.58 
   1  -5  -3    3.17    0.62 
   1  -5  -3    0.24    0.91 
   1  -5  -3   -0.25    0.77 
   1  -5  -3    2.64    0.31 
   1  -5  -3    2.24    0.29 
   1  -5  -3    2.73    0.61 
   1  -5  -4    0.11    0.48 
   1  -5  -4   -1.36    0.85 
   1  -5  -4    0.10    0.55 
   1  -5  -4   -1.63    1.08 
   1  -5  -4   -0.63    0.89 
   1  -5  -4    0.02    0.53 
   1  -5  -4    0.19    0.41 
   1  -5  -5    7.19    0.62 
   1  -5  -5   -0.55    1.97 
   1  -5  -5    4.35    0.73 
   1  -5  -5    1.32    1.25 
   1  -5  -5    1.60    1.19 
   1  -5  -5    5.94    0.73 
   1  -5  -5   -0.61    1.08 
   1  -5  -5    1.04    1.00 
   1  -5  -5    1.19    1.37 
   1  -5  -5    0.91    1.13 
   1  -5  -5    6.79    0.85 
   1  -5  -5    7.23    0.60 
   1  -5  -5    5.80    0.86 
   1  -5  -6    0.12    0.69 
   1  -5  -6   -0.96    1.34 
   1  -5  -6   -0.35    0.79 
   1  -5  -6    0.87    0.55 
   1  -5  -6   -0.16    0.72 
   1  -5  -7    1.99    1.16 
   1  -5  -7    0.65    1.08 
   1  -5  -7    1.67    0.79 
   1  -5  -7    1.59    0.78 
   1  -5  -7    0.96    1.50 
   1  -5  -7    1.70    1.05 
   1  -5  -7    1.09    0.53 
   1  -5  -8    1.49    1.11 
   1  -5  -8    1.62    1.10 
   1  -5  -8    2.04    0.80 
   1  -5  -8    1.89    0.75 
   1  -5  -8    1.56    0.99 
   1  -5  -9    1.09    0.70 
   1  -5  -9    0.09    0.70 
   1  -5  -9    1.44    0.88 
   1  -6  10    0.05    0.43 
   1  -6  10    0.31    0.25 
   1  -6  10    0.30    0.18 
   1  -6   9    0.22    0.74 
   1  -6   9    0.07    0.53 
   1  -6   9    2.03    0.36 
   1  -6   9    1.78    0.27 
   1  -6   9    1.24    0.17 
   1  -6   8   -0.03    0.19 
   1  -6   8    0.25    0.27 
   1  -6   8    0.56    0.30 
   1  -6   8    0.38    0.37 
   1  -6   8    0.29    0.16 
   1  -6   7    0.02    0.22 
   1  -6   7    0.05    0.23 
   1  -6   7   -0.57    0.33 
   1  -6   7   -0.55    0.35 
   1  -6   7    0.02    0.18 
   1  -6   7    0.24    0.90 
   1  -6   7    0.28    0.53 
   1  -6   7   -0.23    0.41 
   1  -6   7   -0.06    0.30 
   1  -6   7   -0.19    0.43 
   1  -6   6   -0.15    0.33 
   1  -6   6   -0.10    0.19 
   1  -6   6   -0.06    0.19 
   1  -6   6    0.35    0.50 
   1  -6   6    0.10    0.34 
   1  -6   6   -0.06    0.44 
   1  -6   6   -0.02    0.53 
   1  -6   6    0.21    0.26 
   1  -6   5    0.13    0.29 
   1  -6   5    0.16    0.25 
   1  -6   5    0.03    0.22 
   1  -6   5    0.01    0.22 
   1  -6   5    0.01    0.23 
   1  -6   5    0.29    0.57 
   1  -6   5    0.39    0.37 
   1  -6   5   -0.11    0.39 
   1  -6   5   -0.12    0.45 
   1  -6   5    0.17    0.57 
   1  -6   5    0.43    0.65 
   1  -6   5    0.51    0.47 
   1  -6   4    0.06    0.24 
   1  -6   4    0.48    0.54 
   1  -6   4    0.56    0.53 
   1  -6   4    0.27    0.47 
   1  -6   4    0.01    0.40 
   1  -6   4   -0.17    0.63 
   1  -6   4    0.36    0.37 
   1  -6   4    0.08    0.41 
   1  -6   4   -0.01    0.44 
   1  -6   4    0.24    0.26 
   1  -6   4    0.54    0.24 
   1  -6   4    0.57    0.25 
   1  -6   3    0.90    0.26 
   1  -6   3    0.65    0.24 
   1  -6   3    1.24    0.57 
   1  -6   3    0.62    0.57 
   1  -6   3    0.63    0.52 
   1  -6   3    1.06    0.58 
   1  -6   3    0.57    0.68 
   1  -6   3    0.75    0.40 
   1  -6   3    0.66    0.47 
   1  -6   2    1.58    0.60 
   1  -6   2    0.50    0.70 
   1  -6   2    0.64    0.64 
   1  -6   2    1.50    0.63 
   1  -6   2    2.02    0.34 
   1  -6   2    1.55    0.29 
   1  -6   2    1.19    0.25 
   1  -6   2    1.46    0.73 
   1  -6   2    1.37    0.43 
   1  -6   2    0.93    0.57 
   1  -6   2    1.78    0.50 
   1  -6   1    4.18    0.58 
   1  -6   1    2.77    0.66 
   1  -6   1    2.46    0.89 
   1  -6   1    1.84    0.79 
   1  -6   1    2.66    0.67 
   1  -6   1    5.04    0.38 
   1  -6   1    3.82    0.32 
   1  -6   1    4.17    0.28 
   1  -6   1    2.67    0.41 
   1  -6   1    2.28    0.78 
   1  -6   1    2.44    0.49 
   1  -6   1    2.32    0.74 
   1  -6   1    4.40    0.59 
   1  -6   0    2.44    0.65 
   1  -6   0    1.86    0.64 
   1  -6   0    4.70    0.38 
   1  -6   0    4.67    0.35 
   1  -6   0    4.02    0.33 
   1  -6   0    3.32    0.26 
   1  -6   0    2.28    0.83 
   1  -6   0    0.84    0.56 
   1  -6   0    2.10    0.49 
   1  -6   0    3.79    0.58 
   1  -6   0    3.73    0.54 
   1  -6   0    3.34    0.48 
   1  -6   0    3.73    0.96 
   1  -6  -1    2.70    0.35 
   1  -6  -1    2.44    0.33 
   1  -6  -1    2.27    0.32 
   1  -6  -1    1.82    0.47 
   1  -6  -1    2.07    0.48 
   1  -6  -1    2.32    0.53 
   1  -6  -1    1.72    0.76 
   1  -6  -1    0.71    0.68 
   1  -6  -1    1.22    0.66 
   1  -6  -1   81.75    2.76 
   1  -6  -1   68.97    2.54 
   1  -6  -1    0.82    0.62 
   1  -6  -1    6.27    1.47 
   1  -6  -2    0.32    0.30 
   1  -6  -2    0.26    0.31 
   1  -6  -2    0.64    0.46 
   1  -6  -2    0.33    0.49 
   1  -6  -2    0.54    0.45 
   1  -6  -2    0.72    0.57 
   1  -6  -2    0.73    0.84 
   1  -6  -2    0.73    0.73 
   1  -6  -2   -0.07    0.71 
   1  -6  -2   -0.02    0.57 
   1  -6  -3   -0.26    0.47 
   1  -6  -3   -0.31    0.32 
   1  -6  -3   -0.24    0.34 
   1  -6  -3   -0.16    0.43 
   1  -6  -3   -0.35    0.62 
   1  -6  -3    0.07    0.61 
   1  -6  -3    0.03    0.84 
   1  -6  -3    1.61    1.02 
   1  -6  -3   -0.05    0.71 
   1  -6  -3   -0.63    0.67 
   1  -6  -4    4.15    0.58 
   1  -6  -4    3.67    0.93 
   1  -6  -4    0.07    0.56 
   1  -6  -4    2.79    0.63 
   1  -6  -4    1.68    0.76 
   1  -6  -4    3.23    0.81 
   1  -6  -4    3.95    0.82 
   1  -6  -4    3.44    0.82 
   1  -6  -4    2.49    1.07 
   1  -6  -4    1.93    1.11 
   1  -6  -4   -3.97    2.74 
   1  -6  -4   -0.55    2.44 
   1  -6  -4    4.19    0.82 
   1  -6  -4    4.24    0.96 
   1  -6  -5   16.23    0.86 
   1  -6  -5   17.55    1.52 
   1  -6  -5   18.18    0.86 
   1  -6  -5   14.91    1.25 
   1  -6  -5    8.10    1.53 
   1  -6  -5    7.89    1.47 
   1  -6  -5   15.63    1.21 
   1  -6  -5   17.88    1.54 
   1  -6  -5   17.78    1.33 
   1  -6  -5   -0.42    3.43 
   1  -6  -5   15.09    1.13 
   1  -6  -5    4.31    3.17 
   1  -6  -6    1.43    0.76 
   1  -6  -6    0.46    0.47 
   1  -6  -6    0.87    0.72 
   1  -6  -6    0.51    0.68 
   1  -6  -6    0.75    0.65 
   1  -6  -6    0.76    0.53 
   1  -6  -7    3.99    0.99 
   1  -6  -7    3.85    0.58 
   1  -6  -7    3.65    0.80 
   1  -6  -7    2.89    0.78 
   1  -6  -8    8.20    1.04 
   1  -6  -8    8.00    0.85 
   1  -6  -8    7.06    0.80 
   1  -6  -9    0.72    0.71 
   1  -6  -9    0.41    0.76 
   1  -6  -9    0.05    0.68 
   1  -7   9    0.34    0.16 
   1  -7   8    0.48    0.29 
   1  -7   8    0.27    0.14 
   1  -7   7    0.31    0.66 
   1  -7   6   -0.10    0.21 
   1  -7   6    0.16    0.17 
   1  -7   6    0.15    0.23 
   1  -7   6    0.26    0.31 
   1  -7   5    0.35    0.23 
   1  -7   5    0.04    0.20 
   1  -7   5    0.02    0.21 
   1  -7   5    0.42    0.20 
   1  -7   5    0.74    0.44 
   1  -7   5    0.28    0.36 
   1  -7   5   -0.04    0.49 
   1  -7   5    0.63    0.27 
   1  -7   4    2.14    0.30 
   1  -7   4    0.12    0.28 
   1  -7   4    0.16    0.27 
   1  -7   4    2.55    0.26 
   1  -7   4    1.32    0.60 
   1  -7   4    0.23    0.53 
   1  -7   4    1.80    0.27 
   1  -7   3    0.39    0.51 
   1  -7   3    1.04    0.48 
   1  -7   3    1.45    0.29 
   1  -7   3    0.08    0.30 
   1  -7   3    0.12    0.28 
   1  -7   3    1.99    0.25 
   1  -7   3    0.70    0.36 
   1  -7   3    1.75    0.65 
   1  -7   3    1.14    0.38 
   1  -7   3    1.38    0.40 
   1  -7   2    0.34    0.51 
   1  -7   2   -0.31    0.62 
   1  -7   2   -0.56    0.57 
   1  -7   2   -0.13    0.28 
   1  -7   2    0.25    0.23 
   1  -7   2    0.34    0.61 
   1  -7   2    0.13    0.41 
   1  -7   2   -0.05    0.48 
   1  -7   2    0.17    0.39 
   1  -7   1   -0.02    0.47 
   1  -7   1    0.05    0.54 
   1  -7   1   -1.06    0.70 
   1  -7   1   -0.44    0.61 
   1  -7   1    0.30    0.34 
   1  -7   1    0.36    0.25 
   1  -7   1    0.08    0.30 
   1  -7   1   -0.03    0.31 
   1  -7   1   -0.13    0.23 
   1  -7   1    0.11    0.64 
   1  -7   1   -0.25    0.54 
   1  -7   1    0.25    0.43 
   1  -7   1    0.27    0.42 
   1  -7   1    0.19    0.53 
   1  -7   0    1.47    0.64 
   1  -7   0    0.39    0.85 
   1  -7   0    0.28    0.73 
   1  -7   0    2.63    0.37 
   1  -7   0    1.87    0.33 
   1  -7   0    0.11    0.35 
   1  -7   0    1.77    0.50 
   1  -7   0    1.42    0.56 
   1  -7   0    2.06    0.59 
   1  -7   0    1.66    0.73 
   1  -7   0    1.51    0.75 
   1  -7   0    2.42    0.60 
   1  -7  -1    0.70    0.31 
   1  -7  -1   -0.01    0.32 
   1  -7  -1    0.93    0.46 
   1  -7  -1    0.67    0.44 
   1  -7  -1    0.24    0.48 
   1  -7  -1    0.43    0.64 
   1  -7  -1   -0.25    0.59 
   1  -7  -1    4.02    1.20 
   1  -7  -1    3.27    1.05 
   1  -7  -1    0.85    0.32 
   1  -7  -2   -0.14    0.64 
   1  -7  -2   -0.17    0.31 
   1  -7  -2   -0.26    0.32 
   1  -7  -2    0.09    0.44 
   1  -7  -2   -0.14    0.48 
   1  -7  -2    0.63    0.71 
   1  -7  -2   -0.27    0.65 
   1  -7  -2   -0.30    0.54 
   1  -7  -2    0.11    0.44 
   1  -7  -2   -0.10    0.45 
   1  -7  -2   -0.09    0.56 
   1  -7  -3    0.09    0.64 
   1  -7  -3    0.40    0.30 
   1  -7  -3    0.55    0.32 
   1  -7  -3    0.29    0.64 
   1  -7  -3    0.28    0.67 
   1  -7  -3    0.50    0.71 
   1  -7  -3    0.72    0.60 
   1  -7  -3    0.05    0.63 
   1  -7  -3    0.14    0.48 
   1  -7  -3    0.59    0.68 
   1  -7  -4   -0.29    0.47 
   1  -7  -4    0.16    0.71 
   1  -7  -4    0.71    0.60 
   1  -7  -4    0.18    0.47 
   1  -7  -4    0.11    0.76 
   1  -7  -4   -0.02    0.65 
   1  -7  -4    0.37    0.68 
   1  -7  -5    0.40    0.47 
   1  -7  -5    0.90    0.64 
   1  -7  -5    0.89    0.77 
   1  -7  -5    1.24    0.82 
   1  -7  -5    0.61    0.62 
   1  -7  -5    1.21    0.50 
   1  -7  -6    0.15    0.74 
   1  -7  -6   -0.29    0.76 
   1  -7  -6   -0.52    0.58 
   1  -7  -6    0.22    0.60 
   1  -7  -6    0.13    0.57 
   1  -7  -6    0.03    0.73 
   1  -7  -6    0.17    0.46 
   1  -7  -7    0.33    0.54 
   1  -7  -7    0.70    0.54 
   1  -7  -7    0.08    0.39 
   1  -8   6    0.02    0.14 
   1  -8   6   -0.09    0.17 
   1  -8   6    0.04    0.50 
   1  -8   5   -0.04    0.15 
   1  -8   5   -0.01    0.27 
   1  -8   5   -0.09    0.18 
   1  -8   5    0.02    0.16 
   1  -8   5   -0.04    0.21 
   1  -8   4    0.49    0.41 
   1  -8   4    0.13    0.23 
   1  -8   4    0.15    0.21 
   1  -8   4    1.89    0.24 
   1  -8   4    1.45    0.20 
   1  -8   3    1.26    0.21 
   1  -8   3    0.54    0.47 
   1  -8   3    1.20    0.43 
   1  -8   3    1.42    0.25 
   1  -8   3    0.15    0.26 
   1  -8   3    0.20    0.25 
   1  -8   3    1.72    0.30 
   1  -8   2    0.52    0.24 
   1  -8   2    0.10    0.22 
   1  -8   2    0.38    0.29 
   1  -8   2    0.66    0.37 
   1  -8   2    0.44    0.31 
   1  -8   2    0.41    0.37 
   1  -8   2    0.06    0.43 
   1  -8   1    1.74    0.49 
   1  -8   1    2.26    0.51 
   1  -8   1    0.80    0.34 
   1  -8   1    2.25    0.36 
   1  -8   1    2.32    0.47 
   1  -8   1    2.42    0.31 
   1  -8   1    0.15    0.33 
   1  -8   1    2.83    0.30 
   1  -8   0    0.02    0.43 
   1  -8   0    0.06    0.40 
   1  -8   0   -0.12    0.31 
   1  -8   0   -0.01    0.34 
   1  -8   0    0.34    0.29 
   1  -8   0    0.27    0.26 
   1  -8   0    0.03    0.27 
   1  -8   0   -0.15    0.42 
   1  -8  -1    0.15    0.45 
   1  -8  -1    0.24    0.40 
   1  -8  -1   -0.24    0.29 
   1  -8  -1    0.32    0.33 
   1  -8  -1    0.18    0.27 
   1  -8  -1    0.09    0.29 
   1  -8  -1    0.26    0.56 
   1  -8  -2    0.01    0.38 
   1  -8  -2    0.29    0.62 
   1  -8  -2    0.11    0.35 
   1  -8  -2   -0.24    0.27 
   1  -8  -2   -0.02    0.28 
   1  -8  -3    2.66    0.62 
   1  -8  -3    2.79    0.31 
   1  -8  -3    2.45    0.28 
   1  -8  -3    2.66    0.47 
   1  -8  -3    3.26    0.61 
   1  -8  -4    0.68    0.52 
   1  -8  -4   -0.01    0.54 
   1  -8  -4    0.85    0.38 
   1  -8  -4    0.38    0.48 
   1  -8  -4    0.44    0.41 
   1  -8  -4    0.84    0.47 
   1  -8  -5    0.01    0.52 
   1  -8  -5    0.08    0.35 
   1  -8  -5    0.03    0.34 
   1  -8  -6    0.03    0.48 
   1  -8  -6    0.05    0.30 
   1  -9   4    0.59    0.29 
   1  -9   3    0.30    0.23 
   1  -9   3    0.28    0.20 
   1  -9   3    0.72    0.31 
   1  -9   2    2.34    0.25 
   1  -9   2    0.43    0.34 
   1  -9   1    0.05    0.19 
   1  -9   1    0.69    0.21 
   1  -9   1    0.49    0.22 
   1  -9   1    0.38    0.23 
   1  -9   0   -0.15    0.19 
   1  -9   0   -0.22    0.22 
   1  -9   0    0.04    0.24 
   1  -9  -1   -0.08    0.24 
   1  -9  -1   -0.10    0.19 
   1  -9  -1   -0.05    0.21 
   1  -9  -2    1.80    0.23 
   1  -9  -2    1.46    0.27 
   1  -9  -2    1.41    0.19 
   1  -9  -2    1.17    0.30 
   1  -9  -3   -0.08    0.26 
   2  10   3   -0.10    0.63 
   2  10   2    0.10    0.82 
   2  10   1   -0.01    0.87 
   2  10   0    0.35    0.46 
   2  10   0    0.05    0.85 
   2  10  -3   -0.42    0.32 
   2   9   4    0.84    0.27 
   2   9   4    0.60    0.29 
   2   9   3    0.28    0.33 
   2   9   3    0.79    0.36 
   2   9   3    2.16    0.28 
   2   9   3    1.76    0.26 
   2   9   2   -0.33    0.35 
   2   9   2    0.02    0.37 
   2   9   2    0.05    0.22 
   2   9   2    0.23    0.22 
   2   9   2   -0.11    0.22 
   2   9   2    0.35    0.23 
   2   9   1    0.47    0.38 
   2   9   1    0.27    0.41 
   2   9   1   -0.01    0.24 
   2   9   1    0.24    0.22 
   2   9   1    0.19    0.25 
   2   9   1    0.11    0.23 
   2   9   0    0.02    0.40 
   2   9   0    0.43    0.44 
   2   9   0    0.42    0.27 
   2   9   0    0.46    0.27 
   2   9  -1   -0.13    0.27 
   2   9  -1   -0.19    0.27 
   2   9  -1   -0.02    0.27 
   2   9  -1    0.30    0.41 
   2   9  -1   -0.15    0.43 
   2   9  -2    0.51    0.29 
   2   9  -2    0.02    1.37 
   2   9  -2    0.21    0.27 
   2   9  -2    0.49    0.28 
   2   9  -3    0.04    0.25 
   2   9  -3   -0.12    0.25 
   2   9  -3    0.30    0.40 
   2   9  -3    0.01    0.27 
   2   9  -4    0.84    0.66 
   2   9  -4    0.12    0.31 
   2   9  -4    0.17    0.34 
   2   9  -4    0.00    0.25 
   2   9  -5    0.10    0.54 
   2   8   6    4.89    0.34 
   2   8   6    4.96    0.33 
   2   8   6    4.42    0.41 
   2   8   6    3.77    0.40 
   2   8   5    2.17    0.42 
   2   8   5    2.15    0.40 
   2   8   5    1.17    0.34 
   2   8   5    1.30    0.37 
   2   8   5    1.94    0.28 
   2   8   4    9.52    0.51 
   2   8   4    7.36    0.44 
   2   8   4    7.58    0.55 
   2   8   4    7.17    0.55 
   2   8   4    5.36    0.55 
   2   8   4    3.85    0.50 
   2   8   4   10.69    0.54 
   2   8   3    2.80    0.41 
   2   8   3    1.81    0.32 
   2   8   3    2.43    0.39 
   2   8   3    1.65    0.32 
   2   8   3    2.06    0.34 
   2   8   3    1.47    0.60 
   2   8   3    3.00    0.67 
   2   8   3    2.33    0.46 
   2   8   3    1.90    0.43 
   2   8   3    1.90    0.49 
   2   8   3    1.50    0.51 
   2   8   2   -0.17    0.32 
   2   8   2    0.32    0.32 
   2   8   2   -0.44    0.33 
   2   8   2    0.12    0.26 
   2   8   2   -0.17    0.33 
   2   8   2    0.02    0.52 
   2   8   2    0.28    0.56 
   2   8   2    0.39    0.40 
   2   8   2    0.53    0.40 
   2   8   2    0.31    0.49 
   2   8   2    0.53    0.53 
   2   8   1   -0.02    0.33 
   2   8   1   -0.02    0.33 
   2   8   1   -0.14    0.33 
   2   8   1    0.11    0.34 
   2   8   1   -0.20    0.26 
   2   8   1   -0.24    0.51 
   2   8   1   -0.12    0.59 
   2   8   1   -0.03    0.38 
   2   8   1   -0.01    0.32 
   2   8   1    0.03    0.37 
   2   8   1    0.11    0.50 
   2   8   1    0.44    0.56 
   2   8   0   -0.11    0.33 
   2   8   0   -0.05    0.32 
   2   8   0   -0.06    0.38 
   2   8   0   -0.02    0.36 
   2   8   0   -0.22    0.54 
   2   8   0    0.15    0.63 
   2   8   0   -0.01    0.37 
   2   8   0    0.21    0.56 
   2   8   0    0.01    0.61 
   2   8  -1    1.53    0.38 
   2   8  -1    3.24    0.46 
   2   8  -1    2.64    0.45 
   2   8  -1    1.62    0.39 
   2   8  -1    1.50    0.65 
   2   8  -1    1.79    0.83 
   2   8  -1    2.36    0.85 
   2   8  -1    3.63    0.68 
   2   8  -1    2.49    0.70 
   2   8  -1    1.58    0.48 
   2   8  -2    0.68    0.75 
   2   8  -2    1.92    0.44 
   2   8  -2    1.54    0.44 
   2   8  -3   -0.16    0.68 
   2   8  -3    0.54    0.74 
   2   8  -3    1.58    0.43 
   2   8  -3    1.51    0.43 
   2   8  -4    0.69    0.97 
   2   8  -4    0.44    0.47 
   2   8  -4    0.37    0.61 
   2   8  -4    0.08    0.67 
   2   8  -5    0.55    0.62 
   2   8  -5    0.61    0.44 
   2   8  -5    1.70    0.86 
   2   8  -6   -0.32    0.70 
   2   8  -6    0.25    0.28 
   2   8  -6    0.09    0.28 
   2   8  -6    0.01    0.35 
   2   7   8    0.49    0.22 
   2   7   8    0.26    0.21 
   2   7   7    1.85    0.30 
   2   7   7    1.92    0.30 
   2   7   7    1.59    0.28 
   2   7   7    1.56    0.52 
   2   7   6    1.08    0.57 
   2   7   6    1.47    1.21 
   2   7   6    0.68    1.16 
   2   7   6    0.97    0.32 
   2   7   6    1.16    0.32 
   2   7   6    0.81    0.30 
   2   7   6    0.69    0.46 
   2   7   6    1.04    0.45 
   2   7   5    2.83    0.43 
   2   7   5    3.19    0.42 
   2   7   5    2.99    0.38 
   2   7   5    3.45    0.55 
   2   7   5    2.54    0.56 
   2   7   5    1.03    0.42 
   2   7   5    1.81    0.47 
   2   7   5    3.14    1.36 
   2   7   5    0.72    1.30 
   2   7   5    3.65    0.78 
   2   7   4   -0.10    0.28 
   2   7   4   -0.09    0.33 
   2   7   4    0.31    0.28 
   2   7   4    0.71    0.50 
   2   7   4    0.82    0.49 
   2   7   4    0.27    0.45 
   2   7   4   -0.45    0.49 
   2   7   4   -0.24    0.62 
   2   7   4    0.30    0.52 
   2   7   4   -0.21    0.61 
   2   7   3    1.57    0.74 
   2   7   3    2.13    0.73 
   2   7   3    1.90    0.75 
   2   7   3    1.74    0.36 
   2   7   3    2.90    0.42 
   2   7   3    1.99    0.36 
   2   7   3    1.46    0.55 
   2   7   3    1.40    0.55 
   2   7   3    1.22    0.56 
   2   7   3    1.71    0.60 
   2   7   3    3.10    1.44 
   2   7   3    0.63    1.41 
   2   7   3    1.94    0.49 
   2   7   3    0.92    0.61 
   2   7   2    0.90    0.69 
   2   7   2    0.24    0.67 
   2   7   2   -0.19    0.67 
   2   7   2    0.49    0.38 
   2   7   2    0.39    0.35 
   2   7   2    0.18    0.35 
   2   7   2    0.35    0.35 
   2   7   2    0.94    0.43 
   2   7   2    0.62    0.51 
   2   7   2    0.46    0.50 
   2   7   2    0.41    0.57 
   2   7   2    0.44    0.62 
   2   7   2    2.96    1.46 
   2   7   2    0.65    1.45 
   2   7   2    0.78    0.73 
   2   7   2    0.24    0.60 
   2   7   1   -0.25    0.62 
   2   7   1   -0.20    0.73 
   2   7   1    0.12    0.49 
   2   7   1   -0.10    0.38 
   2   7   1   -0.44    0.50 
   2   7   1    0.11    0.68 
   2   7   1    0.18    0.39 
   2   7   1   -0.05    0.35 
   2   7   1    0.19    0.38 
   2   7   1   -0.33    0.58 
   2   7   1    0.17    0.61 
   2   7   1    0.64    1.37 
   2   7   1    0.22    1.48 
   2   7   1   -0.01    0.38 
   2   7   1    0.60    0.72 
   2   7   1   -0.03    0.63 
   2   7   0    0.51    0.85 
   2   7   0   -0.20    0.66 
   2   7   0   -0.39    0.76 
   2   7   0   -0.75    0.52 
   2   7   0   -0.41    0.49 
   2   7   0    0.58    0.73 
   2   7   0    0.32    0.36 
   2   7   0    0.83    0.45 
   2   7   0    0.45    0.45 
   2   7   0   -0.55    0.84 
   2   7   0   -0.06    0.82 
   2   7   0    0.32    0.39 
   2   7   0    1.80    1.45 
   2   7  -1    1.17    0.52 
   2   7  -1    0.98    0.53 
   2   7  -1    3.39    0.51 
   2   7  -1    0.95    0.88 
   2   7  -1    2.13    0.85 
   2   7  -1    2.21    0.51 
   2   7  -1    1.86    0.44 
   2   7  -1    2.54    0.54 
   2   7  -1    3.43    0.56 
   2   7  -1    2.17    0.52 
   2   7  -1    2.21    0.93 
   2   7  -1    1.68    0.97 
   2   7  -1    2.12    0.89 
   2   7  -1    4.05    1.14 
   2   7  -1    3.21    0.98 
   2   7  -2   -0.57    0.85 
   2   7  -2   -0.40    0.97 
   2   7  -2    0.21    0.77 
   2   7  -2    0.85    0.63 
   2   7  -2   -0.39    0.81 
   2   7  -2    0.60    0.45 
   2   7  -2   -0.02    0.38 
   2   7  -2   -0.61    0.58 
   2   7  -2    0.34    0.45 
   2   7  -2   -1.01    0.59 
   2   7  -2    1.82    0.92 
   2   7  -2    0.10    0.92 
   2   7  -2    0.12    0.52 
   2   7  -3    0.98    0.65 
   2   7  -3   -0.38    0.76 
   2   7  -3   -0.23    0.44 
   2   7  -3    0.21    0.38 
   2   7  -3    0.04    0.57 
   2   7  -3    0.25    0.56 
   2   7  -3    0.36    0.44 
   2   7  -3    0.03    0.90 
   2   7  -3    1.07    1.00 
   2   7  -3   -1.47    1.06 
   2   7  -3   -0.03    0.55 
   2   7  -4    0.11    0.67 
   2   7  -4    0.17    0.40 
   2   7  -4    1.12    0.56 
   2   7  -4    1.39    0.57 
   2   7  -4    0.45    0.40 
   2   7  -4    1.04    0.97 
   2   7  -4    2.27    0.90 
   2   7  -4    0.61    1.06 
   2   7  -4   -0.68    1.25 
   2   7  -4    0.17    0.72 
   2   7  -5    0.05    0.66 
   2   7  -5    0.92    0.79 
   2   7  -5    0.03    0.89 
   2   7  -5    0.83    0.96 
   2   7  -5    0.39    0.70 
   2   7  -6   -0.37    0.61 
   2   7  -6   -0.16    1.16 
   2   7  -6   -0.18    0.66 
   2   7  -6    0.31    0.45 
   2   7  -6    0.28    0.45 
   2   7  -6    0.55    0.97 
   2   7  -6    0.11    0.81 
   2   7  -6   -0.50    0.80 
   2   7  -6   -0.87    0.90 
   2   7  -6    0.01    0.60 
   2   7  -7   -0.11    0.38 
   2   7  -7   -0.42    0.38 
   2   7  -7   -0.23    0.54 
   2   7  -7   -0.44    0.48 
   2   7  -7   -0.77    0.53 
   2   7  -8    0.26    0.36 
   2   6   9    0.12    0.31 
   2   6   9    0.04    0.31 
   2   6   8    2.96    0.32 
   2   6   8    3.38    0.47 
   2   6   8    3.17    0.47 
   2   6   8    2.62    0.32 
   2   6   7    0.55    1.14 
   2   6   7    0.18    1.09 
   2   6   7    0.94    0.61 
   2   6   7    0.47    0.48 
   2   6   7    0.26    0.45 
   2   6   7    0.68    0.32 
   2   6   7    0.50    0.30 
   2   6   6    6.80    0.48 
   2   6   6    6.13    0.47 
   2   6   6    5.79    0.95 
   2   6   6    4.60    1.35 
   2   6   6    5.93    0.49 
   2   6   6    5.36    0.83 
   2   6   5   -0.02    0.59 
   2   6   5    0.47    0.37 
   2   6   5    0.57    0.39 
   2   6   5    0.50    0.36 
   2   6   5    0.42    0.70 
   2   6   5    1.78    1.35 
   2   6   5   -0.08    0.38 
   2   6   5    0.25    0.46 
   2   6   5   -0.23    0.39 
   2   6   5    0.06    0.41 
   2   6   4    9.53    0.71 
   2   6   4   17.57    0.90 
   2   6   4   17.76    0.92 
   2   6   4   17.32    0.75 
   2   6   4   17.41    0.73 
   2   6   4   16.68    0.72 
   2   6   4   17.42    0.56 
   2   6   4   15.53    0.55 
   2   6   4   17.05    1.20 
   2   6   4   12.74    1.32 
   2   6   4   11.94    0.78 
   2   6   4   12.75    1.33 
   2   6   4   18.98    1.66 
   2   6   4   13.43    0.83 
   2   6   4   10.07    1.02 
   2   6   3   -0.02    0.30 
   2   6   3    0.18    0.35 
   2   6   3    0.45    0.30 
   2   6   3    0.62    0.54 
   2   6   3    0.67    0.53 
   2   6   3    0.10    0.46 
   2   6   3    0.04    0.50 
   2   6   3    0.03    0.74 
   2   6   3    0.18    0.57 
   2   6   3    0.54    0.70 
   2   6   3    0.22    0.52 
   2   6   3    0.50    0.40 
   2   6   2   -0.41    0.72 
   2   6   2   -0.35    0.62 
   2   6   2   -0.18    0.51 
   2   6   2    0.36    0.51 
   2   6   2    0.14    0.68 
   2   6   2    0.15    0.36 
   2   6   2    0.04    0.31 
   2   6   2    0.22    0.32 
   2   6   2    0.18    0.49 
   2   6   2    0.52    0.53 
   2   6   2    0.85    1.15 
   2   6   2    0.20    1.18 
   2   6   2   -0.18    0.64 
   2   6   2   -0.15    0.56 
   2   6   1   -0.41    0.74 
   2   6   1   -0.16    0.71 
   2   6   1   -0.09    0.57 
   2   6   1    0.11    0.51 
   2   6   1    0.31    0.53 
   2   6   1   -0.56    0.74 
   2   6   1   -0.33    0.36 
   2   6   1    0.21    0.41 
   2   6   1    0.49    0.38 
   2   6   1    0.01    0.36 
   2   6   1    0.31    0.41 
   2   6   1   -0.19    0.66 
   2   6   1    0.29    0.68 
   2   6   1    0.04    0.35 
   2   6   1   -0.46    0.70 
   2   6   1    0.25    1.17 
   2   6   1    0.26    1.22 
   2   6   0    1.53    1.21 
   2   6   0    0.34    1.32 
   2   6   0    0.02    0.65 
   2   6   0    0.35    0.72 
   2   6   0    0.20    0.77 
   2   6   0    0.65    0.68 
   2   6   0    0.60    0.62 
   2   6   0    0.25    0.53 
   2   6   0    0.15    0.45 
   2   6   0    0.38    0.54 
   2   6   0   -0.46    0.81 
   2   6   0    0.65    0.45 
   2   6   0    0.26    0.40 
   2   6   0   -0.20    0.43 
   2   6   0   -0.19    0.44 
   2   6   0    0.19    0.44 
   2   6   0    0.50    0.44 
   2   6   0    0.10    0.35 
   2   6   0   -0.03    0.75 
   2   6   0   -0.08    0.85 
   2   6   0    0.75    0.71 
   2   6  -1    6.59    1.37 
   2   6  -1    4.52    0.88 
   2   6  -1    4.66    0.82 
   2   6  -1    5.45    0.64 
   2   6  -1    2.59    0.62 
   2   6  -1    2.41    0.64 
   2   6  -1    2.23    0.99 
   2   6  -1    2.89    0.52 
   2   6  -1    2.98    0.58 
   2   6  -1    4.24    0.58 
   2   6  -1    4.54    0.59 
   2   6  -1    3.19    0.59 
   2   6  -1    4.60    1.00 
   2   6  -1    3.72    1.10 
   2   6  -1    4.42    1.06 
   2   6  -1    3.11    0.95 
   2   6  -1    7.05    0.66 
   2   6  -1    5.16    0.53 
   2   6  -1    2.33    0.97 
   2   6  -1    3.99    1.10 
   2   6  -1   -0.22    1.46 
   2   6  -2   12.84    0.83 
   2   6  -2    9.18    0.63 
   2   6  -2    8.50    1.09 
   2   6  -2    6.99    0.98 
   2   6  -2    7.49    0.84 
   2   6  -2    6.95    0.70 
   2   6  -2    5.74    0.67 
   2   6  -2    8.06    0.74 
   2   6  -2    7.84    0.72 
   2   6  -2    8.97    1.30 
   2   6  -2    6.48    1.29 
   2   6  -2    3.78    1.17 
   2   6  -2    4.45    1.15 
   2   6  -2    3.62    1.10 
   2   6  -2   -2.10    1.85 
   2   6  -2    5.67    1.33 
   2   6  -2    4.52    1.20 
   2   6  -3    0.82    0.80 
   2   6  -3    1.04    0.98 
   2   6  -3    0.49    0.54 
   2   6  -3    1.08    0.61 
   2   6  -3    0.55    0.53 
   2   6  -3    0.62    0.62 
   2   6  -3   -0.53    1.12 
   2   6  -3    0.33    0.97 
   2   6  -3    0.31    0.56 
   2   6  -3    0.34    0.83 
   2   6  -3   -0.07    1.11 
   2   6  -4    1.46    1.29 
   2   6  -4    1.18    0.85 
   2   6  -4    1.85    1.08 
   2   6  -4    0.34    0.53 
   2   6  -4    1.19    0.56 
   2   6  -4    2.92    0.73 
   2   6  -4    2.23    0.69 
   2   6  -4   -0.08    0.87 
   2   6  -4    2.08    1.11 
   2   6  -4    0.20    0.57 
   2   6  -4    0.73    1.25 
   2   6  -5    1.13    0.86 
   2   6  -5   -0.03    0.87 
   2   6  -5    0.40    0.93 
   2   6  -5    0.76    0.50 
   2   6  -5    1.45    1.25 
   2   6  -5   -0.18    0.97 
   2   6  -5    0.04    0.97 
   2   6  -5   -0.58    1.00 
   2   6  -5    0.36    0.94 
   2   6  -5    0.73    0.91 
   2   6  -5   -1.38    1.13 
   2   6  -5   -0.53    1.20 
   2   6  -6   -1.65    0.92 
   2   6  -6    0.60    0.93 
   2   6  -6    1.02    0.65 
   2   6  -6    1.64    0.65 
   2   6  -6   -0.04    1.14 
   2   6  -6    0.89    1.17 
   2   6  -6    1.10    0.85 
   2   6  -6   -1.46    0.98 
   2   6  -6   -0.18    1.01 
   2   6  -6    1.06    0.94 
   2   6  -6    0.52    0.87 
   2   6  -7    0.65    0.54 
   2   6  -7    0.54    0.54 
   2   6  -7    0.10    1.04 
   2   6  -7    2.18    1.10 
   2   6  -7    0.38    1.26 
   2   6  -7   -1.25    0.87 
   2   6  -7   -0.13    0.99 
   2   6  -7   -0.03    0.86 
   2   6  -7    0.22    0.82 
   2   6  -7    1.09    0.76 
   2   6  -8   -0.25    0.65 
   2   6  -8   -0.16    0.45 
   2   6  -8    0.03    0.45 
   2   6  -8    0.20    0.55 
   2   6  -8    0.25    0.85 
   2   6  -8    0.15    0.91 
   2   6  -8   -0.01    0.63 
   2   6  -8   -0.11    0.88 
   2   6  -8    0.10    0.72 
   2   6  -8    0.06    0.76 
   2   5  10    0.23    0.29 
   2   5  10    0.06    0.29 
   2   5   9    3.82    0.66 
   2   5   9    3.45    0.31 
   2   5   9    4.23    0.34 
   2   5   9    3.31    0.31 
   2   5   9    4.48    0.46 
   2   5   9    4.25    0.47 
   2   5   8    8.68    0.48 
   2   5   8    8.82    0.47 
   2   5   8    9.47    0.49 
   2   5   8   10.73    1.01 
   2   5   8   10.31    1.00 
   2   5   8    9.51    0.64 
   2   5   8    9.38    0.64 
   2   5   8    4.92    0.67 
   2   5   8    5.11    0.67 
   2   5   7    0.63    0.55 
   2   5   7    0.86    0.33 
   2   5   7    0.63    0.32 
   2   5   7    0.88    0.34 
   2   5   7    0.69    0.31 
   2   5   7    0.55    0.66 
   2   5   7    0.35    0.51 
   2   5   7   -0.06    0.45 
   2   5   7    0.18    0.45 
   2   5   7    0.90    0.53 
   2   5   7    0.85    0.51 
   2   5   6   19.82    0.93 
   2   5   6   30.63    1.53 
   2   5   6   32.66    1.11 
   2   5   6   31.35    1.09 
   2   5   6   32.11    0.91 
   2   5   6   34.63    0.91 
   2   5   6   27.92    0.79 
   2   5   6   27.73    1.38 
   2   5   6   33.97    1.54 
   2   5   6   20.18    1.18 
   2   5   6   21.67    1.19 
   2   5   5    5.64    0.55 
   2   5   5    7.83    0.72 
   2   5   5    7.44    1.01 
   2   5   5    6.85    0.69 
   2   5   5    7.20    0.70 
   2   5   5    7.19    0.81 
   2   5   5    5.50    0.50 
   2   5   5    4.80    0.46 
   2   5   5    9.09    0.69 
   2   5   5    8.48    0.69 
   2   5   5    9.05    0.54 
   2   5   5    9.58    0.53 
   2   5   5    8.39    0.47 
   2   5   5    6.24    0.88 
   2   5   5    8.93    0.96 
   2   5   4   17.83    1.17 
   2   5   4   21.17    1.03 
   2   5   4   22.89    1.06 
   2   5   4   21.77    1.22 
   2   5   4   19.72    0.85 
   2   5   4   19.16    0.82 
   2   5   4   24.79    1.37 
   2   5   4   27.05    0.85 
   2   5   4   25.89    0.83 
   2   5   4   22.40    0.70 
   2   5   4   26.65    0.63 
   2   5   4   23.91    0.62 
   2   5   4   20.51    1.33 
   2   5   4   22.81    1.57 
   2   5   4   26.69    1.27 
   2   5   4   21.63    0.93 
   2   5   4   20.40    1.13 
   2   5   3    0.16    0.38 
   2   5   3    0.24    0.43 
   2   5   3    0.45    0.81 
   2   5   3    0.35    0.63 
   2   5   3    0.53    0.25 
   2   5   3    0.40    0.35 
   2   5   3    0.59    0.25 
   2   5   3    0.48    0.51 
   2   5   3    0.86    0.75 
   2   5   3    0.07    0.62 
   2   5   3    0.57    0.56 
   2   5   3    0.57    0.37 
   2   5   3    0.45    0.56 
   2   5   3   -0.04    0.44 
   2   5   3    0.50    0.35 
   2   5   3    0.46    0.33 
   2   5   2    5.89    0.65 
   2   5   2    6.02    0.66 
   2   5   2    7.18    0.91 
   2   5   2    2.16    0.66 
   2   5   2    7.08    0.55 
   2   5   2    4.93    0.79 
   2   5   2    2.90    0.78 
   2   5   2    5.08    1.00 
   2   5   2    8.50    0.96 
   2   5   2    7.78    0.54 
   2   5   2    7.00    0.52 
   2   5   2    6.81    0.42 
   2   5   2    6.88    0.44 
   2   5   2    7.50    0.59 
   2   5   2    7.40    0.59 
   2   5   1    0.08    0.48 
   2   5   1    0.13    0.49 
   2   5   1    0.21    0.51 
   2   5   1    0.31    0.33 
   2   5   1    0.32    0.31 
   2   5   1    0.26    0.39 
   2   5   1    0.16    0.34 
   2   5   1   -0.04    0.34 
   2   5   1    0.07    0.61 
   2   5   1    0.16    0.57 
   2   5   1    0.51    0.64 
   2   5   1    0.58    0.55 
   2   5   1    0.23    0.53 
   2   5   1    0.49    0.77 
   2   5   1    0.29    0.67 
   2   5   0   11.92    0.61 
   2   5   0    9.97    0.56 
   2   5   0    3.04    0.95 
   2   5   0    8.74    0.81 
   2   5   0    9.50    0.78 
   2   5   0   11.17    0.67 
   2   5   0    7.22    0.64 
   2   5   0    7.07    1.20 
   2   5   0    6.55    0.62 
   2   5   0    8.12    0.57 
   2   5   0    8.06    0.59 
   2   5   0    7.31    0.95 
   2   5   0    9.49    1.13 
   2   5   0   10.46    1.07 
   2   5   0    7.51    0.93 
   2   5   0   11.27    1.11 
   2   5   0    5.07    1.34 
   2   5   0    4.39    1.11 
   2   5   0    6.54    1.04 
   2   5  -1    2.81    0.92 
   2   5  -1    0.98    0.89 
   2   5  -1    1.30    0.91 
   2   5  -1    1.71    0.80 
   2   5  -1   -0.19    0.85 
   2   5  -1    0.49    0.74 
   2   5  -1    2.83    0.61 
   2   5  -1    2.94    0.99 
   2   5  -1    3.06    0.51 
   2   5  -1    3.29    0.51 
   2   5  -1    1.79    0.84 
   2   5  -1    3.76    0.50 
   2   5  -1    3.14    0.40 
   2   5  -1    1.49    0.92 
   2   5  -2   15.56    1.46 
   2   5  -2   13.26    1.39 
   2   5  -2   13.24    1.26 
   2   5  -2   16.22    1.18 
   2   5  -2   14.08    1.08 
   2   5  -2   15.51    0.99 
   2   5  -2   14.05    1.50 
   2   5  -2   15.37    0.83 
   2   5  -2   15.46    0.84 
   2   5  -2   14.07    1.47 
   2   5  -2   16.68    0.81 
   2   5  -2   21.30    0.88 
   2   5  -2   19.44    0.75 
   2   5  -2   13.82    1.43 
   2   5  -2   13.61    1.51 
   2   5  -2   17.26    2.19 
   2   5  -3   12.89    1.56 
   2   5  -3   13.14    1.47 
   2   5  -3   43.77    1.69 
   2   5  -3   38.66    1.55 
   2   5  -3   16.30    1.09 
   2   5  -3   15.91    1.45 
   2   5  -3   10.23    1.44 
   2   5  -3   15.27    0.94 
   2   5  -3   14.74    0.95 
   2   5  -3   14.38    1.64 
   2   5  -3   19.21    0.90 
   2   5  -3   24.06    1.04 
   2   5  -3   19.07    0.78 
   2   5  -3   11.71    1.44 
   2   5  -3   17.59    1.66 
   2   5  -4    0.16    0.93 
   2   5  -4    0.59    0.91 
   2   5  -4   -0.15    1.17 
   2   5  -4   84.54    4.17 
   2   5  -4    1.12    0.84 
   2   5  -4   -0.61    1.02 
   2   5  -4    0.55    1.08 
   2   5  -4   18.07    1.01 
   2   5  -4   14.87    0.98 
   2   5  -4   -0.50    0.61 
   2   5  -4    0.77    0.99 
   2   5  -4    0.14    1.13 
   2   5  -4  104.89    3.66 
   2   5  -5    1.16    1.02 
   2   5  -5    0.14    1.13 
   2   5  -5    0.11    0.95 
   2   5  -5    2.08    1.00 
   2   5  -5    1.35    1.13 
   2   5  -5    0.84    1.14 
   2   5  -5    0.76    1.22 
   2   5  -5    0.98    0.61 
   2   5  -5    1.03    1.32 
   2   5  -5  112.76    4.66 
   2   5  -5    0.27    1.02 
   2   5  -5  101.59    3.94 
   2   5  -6    2.05    1.14 
   2   5  -6    0.39    1.18 
   2   5  -6    1.37    1.08 
   2   5  -6    0.43    1.34 
   2   5  -6    0.46    1.12 
   2   5  -6    1.03    1.15 
   2   5  -6    0.50    1.04 
   2   5  -6    1.01    1.34 
   2   5  -6    1.03    0.71 
   2   5  -6    0.61    0.65 
   2   5  -6    0.16    1.14 
   2   5  -6    0.83    1.05 
   2   5  -6    0.88    1.03 
   2   5  -7    1.09    1.41 
   2   5  -7   89.36    2.31 
   2   5  -7   -0.06    1.11 
   2   5  -7    0.46    1.25 
   2   5  -7    0.36    1.09 
   2   5  -7    2.30    1.08 
   2   5  -7    1.43    1.19 
   2   5  -7    0.32    0.94 
   2   5  -7   36.16    1.22 
   2   5  -7   30.48    1.17 
   2   5  -7   85.36    2.16 
   2   5  -7    1.04    0.78 
   2   5  -7    0.95    1.29 
   2   5  -7   51.72    3.43 
   2   5  -7    2.45    1.35 
   2   5  -8    0.41    1.06 
   2   5  -8   -0.08    1.22 
   2   5  -8    0.60    1.05 
   2   5  -8   11.75    1.13 
   2   5  -8    0.61    1.10 
   2   5  -8    3.90    0.73 
   2   5  -8    2.05    0.71 
   2   5  -8    0.88    1.20 
   2   5  -8    2.37    0.92 
   2   5  -8   -0.12    1.18 
   2   5  -8   10.49    1.00 
   2   5  -9    0.75    1.03 
   2   5  -9   -0.07    1.10 
   2   5  -9    0.31    0.94 
   2   5  -9    0.07    0.91 
   2   5  -9   -0.46    0.52 
   2   5  -9    0.89    0.53 
   2   5 -10    0.10    0.86 
   2   5 -10   -0.13    0.51 
   2   4  11    0.29    0.58 
   2   4  10    1.73    0.27 
   2   4  10    1.72    0.36 
   2   4  10    2.05    0.36 
   2   4  10    2.06    0.53 
   2   4   9    0.68    0.26 
   2   4   9    0.84    0.25 
   2   4   9    0.65    0.30 
   2   4   9    1.09    0.72 
   2   4   9    0.51    0.57 
   2   4   9    0.51    0.32 
   2   4   9    0.41    0.43 
   2   4   9    0.68    0.43 
   2   4   8    6.37    0.94 
   2   4   8    5.33    0.86 
   2   4   8    5.74    0.40 
   2   4   8    5.72    0.40 
   2   4   8    6.90    0.44 
   2   4   8    6.28    0.44 
   2   4   8    6.40    0.57 
   2   4   8    3.88    0.46 
   2   4   8    6.24    0.57 
   2   4   8    3.40    0.60 
   2   4   8    3.86    0.62 
   2   4   8    4.72    0.65 
   2   4   7   25.76    1.45 
   2   4   7   23.74    1.45 
   2   4   7   18.93    0.73 
   2   4   7   26.32    0.93 
   2   4   7   25.85    0.93 
   2   4   7   26.36    0.74 
   2   4   7   25.72    0.73 
   2   4   7   15.47    0.79 
   2   4   7   25.89    0.73 
   2   4   7   21.61    1.25 
   2   4   7   20.46    1.12 
   2   4   7   18.16    1.09 
   2   4   7   25.01    1.30 
   2   4   7   14.88    1.02 
   2   4   7   15.00    1.02 
   2   4   6   -0.38    0.71 
   2   4   6    0.12    0.67 
   2   4   6    0.59    0.47 
   2   4   6    0.21    0.45 
   2   4   6   -0.03    0.39 
   2   4   6   -0.20    0.54 
   2   4   6    0.13    0.52 
   2   4   6   -0.20    0.43 
   2   4   6    0.10    0.34 
   2   4   6    0.09    0.28 
   2   4   6   -0.07    0.33 
   2   4   6    0.18    0.29 
   2   4   6   -0.15    0.55 
   2   4   6   -0.30    0.44 
   2   4   6   -0.10    0.43 
   2   4   6    0.10    0.30 
   2   4   6    0.73    0.36 
   2   4   6   -0.96    0.84 
   2   4   5   34.37    1.15 
   2   4   5   41.05    1.34 
   2   4   5   44.27    1.72 
   2   4   5   45.46    1.85 
   2   4   5   47.64    1.21 
   2   4   5   47.38    1.21 
   2   4   5   44.87    1.03 
   2   4   5   46.45    0.99 
   2   4   5   45.00    1.03 
   2   4   5   35.19    1.07 
   2   4   5   35.16    1.26 
   2   4   5   42.20    1.60 
   2   4   5   35.30    1.33 
   2   4   5   36.13    1.33 
   2   4   5   37.43    1.47 
   2   4   5   38.47    1.34 
   2   4   5   50.74    1.66 
   2   4   5   28.21    1.29 
   2   4   4   58.88    1.52 
   2   4   4   81.34    2.06 
   2   4   4   60.31    1.69 
   2   4   4   50.70    1.36 
   2   4   4   49.22    1.34 
   2   4   4   66.95    1.53 
   2   4   4   67.05    1.55 
   2   4   4   65.08    1.65 
   2   4   4   72.89    2.11 
   2   4   4   61.50    1.81 
   2   4   4   66.42    1.38 
   2   4   4   63.35    1.36 
   2   4   4   63.79    1.37 
   2   4   4   62.44    1.29 
   2   4   4   55.03    1.61 
   2   4   4   67.58    2.02 
   2   4   4   62.12    1.68 
   2   4   4   62.01    1.67 
   2   4   4   67.70    2.07 
   2   4   4   72.18    1.85 
   2   4   3    8.48    0.52 
   2   4   3    7.46    0.63 
   2   4   3    8.14    0.88 
   2   4   3    5.41    0.73 
   2   4   3    9.29    0.81 
   2   4   3    9.29    0.55 
   2   4   3    6.58    0.38 
   2   4   3    6.28    0.65 
   2   4   3    8.01    0.34 
   2   4   3    8.15    0.35 
   2   4   3    6.72    0.53 
   2   4   3    5.96    0.62 
   2   4   3    8.79    0.86 
   2   4   3    5.50    0.89 
   2   4   3    9.35    0.78 
   2   4   3    9.27    0.58 
   2   4   3    9.23    0.58 
   2   4   2   42.73    1.77 
   2   4   2   50.20    1.69 
   2   4   2   39.76    0.99 
   2   4   2   40.18    1.13 
   2   4   2   39.47    1.12 
   2   4   2   44.68    0.94 
   2   4   2   46.76    0.96 
   2   4   2   49.01    1.61 
   2   4   2   34.65    1.37 
   2   4   2   47.86    1.61 
   2   4   2   46.55    1.66 
   2   4   2   46.95    1.21 
   2   4   2   48.86    1.22 
   2   4   2   40.49    1.36 
   2   4   2   38.26    1.91 
   2   4   2   51.04    1.81 
   2   4   1   53.86    1.27 
   2   4   1   52.89    1.27 
   2   4   1   34.66    1.30 
   2   4   1   45.99    1.35 
   2   4   1   47.70    2.01 
   2   4   1   45.56    1.25 
   2   4   1   49.07    1.83 
   2   4   1   55.85    1.13 
   2   4   1   57.10    1.27 
   2   4   1   43.84    1.24 
   2   4   1   43.99    1.09 
   2   4   1   44.11    1.10 
   2   4   1   55.66    2.15 
   2   4   1   52.64    1.61 
   2   4   1   38.62    2.06 
   2   4   1   59.93    1.84 
   2   4   1   58.91    1.82 
   2   4   1   52.43    1.78 
   2   4   0  131.88    3.14 
   2   4   0  133.60    3.16 
   2   4   0  113.02    3.06 
   2   4   0  135.70    3.17 
   2   4   0   98.28    2.98 
   2   4   0  130.01    2.25 
   2   4   0  128.49    2.30 
   2   4   0  117.91    2.19 
   2   4   0  118.31    2.21 
   2   4   0   76.15    2.42 
   2   4   0  123.15    2.81 
   2   4   0  117.48    2.95 
   2   4   0  154.14    4.02 
   2   4   0   94.50    2.45 
   2   4  -1    9.13    0.88 
   2   4  -1   10.18    0.78 
   2   4  -1   10.19    1.15 
   2   4  -1    8.14    1.12 
   2   4  -1   10.38    0.64 
   2   4  -1    9.79    0.65 
   2   4  -1    7.81    1.13 
   2   4  -1   19.38    1.99 
   2   4  -1   10.79    0.98 
   2   4  -1   18.79    1.59 
   2   4  -1   11.96    0.58 
   2   4  -1    9.61    0.52 
   2   4  -1    8.96    1.14 
   2   4  -1    6.99    1.10 
   2   4  -2  873.44   14.25 
   2   4  -2  855.90   13.08 
   2   4  -2  910.81   13.95 
   2   4  -2  771.40   14.43 
   2   4  -2  664.84   12.77 
   2   4  -2  686.88   12.82 
   2   4  -2  917.31   12.82 
   2   4  -2  920.49   14.17 
   2   4  -2 1006.87   14.51 
   2   4  -2  898.61   14.11 
   2   4  -2  931.96   14.16 
   2   4  -3   22.45    1.75 
   2   4  -3   22.04    1.12 
   2   4  -3   26.53    1.70 
   2   4  -3   26.85    1.59 
   2   4  -3   22.04    1.57 
   2   4  -3   30.98    1.05 
   2   4  -3   26.77    1.62 
   2   4  -3   29.39    0.82 
   2   4  -3   23.89    1.71 
   2   4  -4   41.77    2.18 
   2   4  -4   58.19    1.47 
   2   4  -4   25.73    1.31 
   2   4  -4   40.46    2.03 
   2   4  -4   27.50    1.46 
   2   4  -4    0.45    1.01 
   2   4  -4   42.87    2.23 
   2   4  -4   67.39    1.54 
   2   4  -4   46.06    2.08 
   2   4  -5    6.62    1.36 
   2   4  -5    7.74    0.85 
   2   4  -5    0.95    0.93 
   2   4  -5    5.04    1.24 
   2   4  -5    4.30    1.04 
   2   4  -5   -0.04    0.96 
   2   4  -5    4.10    1.03 
   2   4  -5    6.50    1.46 
   2   4  -5    9.35    0.82 
   2   4  -5    3.91    1.11 
   2   4  -6    3.45    1.38 
   2   4  -6    4.62    0.85 
   2   4  -6    7.53    1.27 
   2   4  -6    2.65    1.24 
   2   4  -6    0.41    1.11 
   2   4  -6   -0.13    1.14 
   2   4  -6    1.94    1.14 
   2   4  -6    2.76    1.41 
   2   4  -6    2.73    2.78 
   2   4  -6    6.07    0.81 
   2   4  -6    3.90    1.15 
   2   4  -6    4.51    1.19 
   2   4  -6    2.12    1.07 
   2   4  -7    7.72    1.65 
   2   4  -7   10.71    1.23 
   2   4  -7    4.86    1.62 
   2   4  -7    6.49    1.54 
   2   4  -7    1.05    1.38 
   2   4  -7    0.23    1.26 
   2   4  -7   13.71    1.09 
   2   4  -7    5.96    1.29 
   2   4  -7    8.56    1.41 
   2   4  -7    6.67    1.34 
   2   4  -8    0.13    1.24 
   2   4  -8  161.57    2.23 
   2   4  -8  160.03    2.21 
   2   4  -8   -1.15    1.51 
   2   4  -8    0.81    1.39 
   2   4  -8    0.77    0.93 
   2   4  -8    1.70    1.41 
   2   4  -8    0.32    1.37 
   2   4  -8  150.19    6.01 
   2   4  -9   91.37    1.68 
   2   4  -9   87.80    1.68 
   2   4  -9    4.40    1.38 
   2   4  -9    2.86    1.50 
   2   4  -9  104.04    4.44 
   2   4  -9    1.00    1.45 
   2   4 -10    0.38    1.03 
   2   4 -10    0.85    1.24 
   2   4 -10    0.16    0.99 
   2   4 -10    2.37    0.79 
   2   3  11    0.80    0.67 
   2   3  11   -0.16    0.37 
   2   3  10    6.89    0.47 
   2   3  10    8.07    0.46 
   2   3  10    8.28    0.49 
   2   3  10    9.22    0.95 
   2   3  10    7.71    0.71 
   2   3  10    8.53    0.41 
   2   3  10    8.25    0.45 
   2   3  10    7.47    0.63 
   2   3  10    8.12    0.78 
   2   3   9   16.71    1.40 
   2   3   9   13.23    1.06 
   2   3   9   15.47    0.66 
   2   3   9   15.60    0.62 
   2   3   9   15.82    0.67 
   2   3   9   12.09    0.98 
   2   3   9    9.29    0.86 
   2   3   9   16.41    0.57 
   2   3   9   16.40    0.59 
   2   3   9    9.96    0.85 
   2   3   9    8.69    0.80 
   2   3   9    9.20    0.74 
   2   3   9    9.23    0.74 
   2   3   9   12.88    0.80 
   2   3   9   11.21    1.12 
   2   3   9   10.59    0.88 
   2   3   8    9.73    0.86 
   2   3   8   10.73    0.76 
   2   3   8    8.82    0.73 
   2   3   8    8.61    0.72 
   2   3   8   14.45    0.67 
   2   3   8   14.28    0.62 
   2   3   8   13.27    0.66 
   2   3   8   13.35    0.50 
   2   3   8   13.46    0.50 
   2   3   8    7.05    0.56 
   2   3   8   15.41    0.59 
   2   3   8   12.40    1.00 
   2   3   8    9.53    0.86 
   2   3   8   16.20    1.29 
   2   3   8   14.34    1.12 
   2   3   7    1.08    0.44 
   2   3   7    1.28    0.43 
   2   3   7    1.03    0.43 
   2   3   7    0.84    0.62 
   2   3   7    0.48    0.46 
   2   3   7    1.07    0.28 
   2   3   7    1.13    0.26 
   2   3   7    1.45    0.39 
   2   3   7    0.43    0.32 
   2   3   7    0.57    0.45 
   2   3   7    0.84    0.45 
   2   3   7    0.66    0.42 
   2   3   7    1.00    0.64 
   2   3   7    1.23    0.76 
   2   3   7    0.69    0.37 
   2   3   7    0.74    0.37 
   2   3   6   21.57    1.24 
   2   3   6   16.75    0.92 
   2   3   6   20.96    1.24 
   2   3   6   12.99    0.67 
   2   3   6   16.52    0.70 
   2   3   6   20.35    0.75 
   2   3   6   20.57    0.75 
   2   3   6   20.76    0.61 
   2   3   6   20.40    0.60 
   2   3   6   22.63    0.64 
   2   3   6   21.81    0.64 
   2   3   6   17.35    0.95 
   2   3   6   18.01    1.07 
   2   3   6   15.60    0.89 
   2   3   6   15.10    0.88 
   2   3   6   16.17    0.91 
   2   3   6   21.68    1.05 
   2   3   6   19.13    1.10 
   2   3   6   15.16    0.81 
   2   3   6   15.47    0.81 
   2   3   5    1.28    0.38 
   2   3   5    1.60    0.39 
   2   3   5    1.03    0.59 
   2   3   5    1.04    0.50 
   2   3   5    1.25    0.38 
   2   3   5    1.21    0.26 
   2   3   5    1.22    0.32 
   2   3   5    1.58    0.29 
   2   3   5    1.18    0.26 
   2   3   5    2.06    0.65 
   2   3   5    1.54    0.47 
   2   3   5    1.20    0.65 
   2   3   5    1.43    0.52 
   2   3   5    1.93    0.56 
   2   3   5    1.66    0.39 
   2   3   5    1.61    0.40 
   2   3   5    1.42    0.32 
   2   3   5    1.42    0.32 
   2   3   4   49.04    1.29 
   2   3   4   56.08    1.36 
   2   3   4   52.42    1.28 
   2   3   4   52.85    1.28 
   2   3   4   51.90    1.13 
   2   3   4   51.09    1.12 
   2   3   4   55.81    1.18 
   2   3   4   61.30    1.83 
   2   3   4   41.06    1.49 
   2   3   4   54.41    1.89 
   2   3   4   54.85    1.42 
   2   3   4   53.80    1.54 
   2   3   4   57.87    1.76 
   2   3   4   56.83    1.40 
   2   3   4   59.66    1.71 
   2   3   4   54.41    1.67 
   2   3   4   50.26    1.41 
   2   3   4   51.64    1.41 
   2   3   3   85.74    1.92 
   2   3   3   85.30    1.92 
   2   3   3   95.25    2.21 
   2   3   3   97.77    2.48 
   2   3   3   95.82    1.81 
   2   3   3   95.35    2.38 
   2   3   3   97.59    1.95 
   2   3   3   89.91    2.31 
   2   3   3   98.56    2.03 
   2   3   3   96.80    2.00 
   2   3   3  102.87    2.28 
   2   3   3   95.07    1.96 
   2   3   3   89.10    2.00 
   2   3   3   94.80    2.49 
   2   3   3  100.51    2.71 
   2   3   3   89.89    2.14 
   2   3   2   10.91    0.86 
   2   3   2   11.83    0.57 
   2   3   2   11.83    0.56 
   2   3   2   12.04    0.56 
   2   3   2   12.02    0.84 
   2   3   2   13.89    0.78 
   2   3   2   14.77    0.82 
   2   3   2   13.81    0.98 
   2   3   2   15.15    0.58 
   2   3   2   15.17    0.57 
   2   3   2   11.65    0.91 
   2   3   2   11.73    0.97 
   2   3   2   13.94    0.53 
   2   3   1    2.27    0.75 
   2   3   1    3.09    0.59 
   2   3   1    2.87    0.63 
   2   3   1    3.00    0.64 
   2   3   1    1.96    0.77 
   2   3   1    3.46    0.35 
   2   3   1    3.50    0.79 
   2   3   1    1.91    0.75 
   2   3   1    1.81    0.48 
   2   3   1    2.38    0.29 
   2   3   1    2.87    0.29 
   2   3   0    2.07    0.92 
   2   3   0    1.84    0.32 
   2   3   0    1.38    0.30 
   2   3   0   -1.02    0.69 
   2   3   0    3.36    0.70 
   2   3   0    2.50    0.78 
   2   3   0    2.15    0.75 
   2   3   0   -0.42    1.04 
   2   3   0    2.03    0.71 
   2   3   0    1.72    0.22 
   2   3   0    1.71    0.23 
   2   3  -1  270.92    4.12 
   2   3  -1  303.39    5.06 
   2   3  -1  276.02    4.88 
   2   3  -1  298.25    5.13 
   2   3  -1  299.74    5.05 
   2   3  -1  263.55    5.00 
   2   3  -2   36.24    1.69 
   2   3  -2   26.17    1.96 
   2   3  -2   38.45    1.53 
   2   3  -2   24.46    1.50 
   2   3  -2   45.08    0.96 
   2   3  -2   47.12    1.72 
   2   3  -2   51.87    1.78 
   2   3  -2   46.22    1.70 
   2   3  -2   35.45    1.64 
   2   3  -3  138.77    3.76 
   2   3  -3  160.80    2.97 
   2   3  -3  166.99    2.76 
   2   3  -3  156.03    3.70 
   2   3  -3  135.58    3.54 
   2   3  -3  136.67    3.66 
   2   3  -3  170.85    3.79 
   2   3  -3  154.90    3.66 
   2   3  -4    9.81    1.07 
   2   3  -4    7.12    1.03 
   2   3  -4    7.26    1.04 
   2   3  -4    6.04    1.14 
   2   3  -4    3.23    0.78 
   2   3  -4    4.00    0.76 
   2   3  -4    7.18    1.04 
   2   3  -4    4.90    1.12 
   2   3  -4   10.48    0.65 
   2   3  -4    9.96    1.24 
   2   3  -5    6.92    1.03 
   2   3  -5    5.29    1.17 
   2   3  -5    2.28    0.82 
   2   3  -5    2.52    0.84 
   2   3  -5    7.32    1.15 
   2   3  -5    5.47    1.18 
   2   3  -5   10.06    0.79 
   2   3  -5    7.37    1.21 
   2   3  -6    7.29    1.14 
   2   3  -6    7.53    1.42 
   2   3  -6    3.81    1.01 
   2   3  -6    4.28    1.04 
   2   3  -6    8.60    1.34 
   2   3  -6    6.77    1.38 
   2   3  -6    9.37    1.39 
   2   3  -7    4.36    1.09 
   2   3  -7    3.53    1.09 
   2   3  -7    3.51    1.14 
   2   3  -7    1.39    1.36 
   2   3  -7    0.64    1.18 
   2   3  -7    0.98    1.18 
   2   3  -7    3.18    1.29 
   2   3  -7    2.06    1.44 
   2   3  -8   10.42    1.65 
   2   3  -8    6.77    1.70 
   2   3  -8   10.32    1.45 
   2   3  -8   10.17    1.42 
   2   3  -8    8.16    1.36 
   2   3  -8    2.86    1.48 
   2   3  -8    2.75    1.44 
   2   3  -8    7.81    1.80 
   2   3  -9   -0.27    1.23 
   2   3  -9   -0.07    1.28 
   2   3  -9    0.13    1.27 
   2   3  -9    0.14    1.40 
   2   3 -10  157.25    2.17 
   2   3 -10  148.77    2.16 
   2   3 -10   -0.45    1.47 
   2   3 -10   61.82    2.04 
   2   3 -10    0.88    1.65 
   2   3 -11   -0.31    0.96 
   2   3 -11    0.96    1.33 
   2   3 -11    0.46    0.94 
   2   2  12    0.60    0.45 
   2   2  12    0.44    0.26 
   2   2  11    0.35    0.28 
   2   2  11    0.06    0.43 
   2   2  11    0.18    0.75 
   2   2  11   -0.01    0.50 
   2   2  11    0.07    0.31 
   2   2  10    1.11    0.40 
   2   2  10    0.39    0.52 
   2   2  10    0.55    0.42 
   2   2  10    0.51    0.40 
   2   2  10    0.65    0.36 
   2   2  10    0.39    0.38 
   2   2  10    0.98    0.52 
   2   2  10    0.15    0.83 
   2   2  10    0.30    0.65 
   2   2   9   -0.23    0.91 
   2   2   9    0.24    0.68 
   2   2   9    0.33    0.56 
   2   2   9    0.65    0.49 
   2   2   9    0.56    0.37 
   2   2   9   -0.83    0.50 
   2   2   9    0.19    0.36 
   2   2   9    0.02    0.66 
   2   2   9    0.02    0.47 
   2   2   9    0.07    0.28 
   2   2   9   -0.11    0.40 
   2   2   9   -0.09    0.40 
   2   2   9    0.28    0.40 
   2   2   9    0.56    0.41 
   2   2   9    0.60    0.43 
   2   2   9    0.02    0.51 
   2   2   9    0.02    0.58 
   2   2   8   27.77    1.11 
   2   2   8   22.93    1.20 
   2   2   8   23.45    1.20 
   2   2   8   18.63    1.32 
   2   2   8   20.98    1.14 
   2   2   8   31.88    0.90 
   2   2   8   35.22    0.93 
   2   2   8   33.02    0.91 
   2   2   8   34.37    0.84 
   2   2   8   33.72    0.82 
   2   2   8   32.97    0.82 
   2   2   8   35.91    0.89 
   2   2   8   28.41    1.26 
   2   2   8   28.65    1.41 
   2   2   8   31.63    1.49 
   2   2   8   24.42    1.25 
   2   2   8   30.34    1.30 
   2   2   8   32.29    1.47 
   2   2   7    0.04    0.50 
   2   2   7    0.04    0.50 
   2   2   7    0.28    0.35 
   2   2   7   -0.04    0.33 
   2   2   7    0.33    0.40 
   2   2   7   -0.18    0.44 
   2   2   7    0.21    0.61 
   2   2   7    0.31    0.28 
   2   2   7    0.05    0.28 
   2   2   7   -0.09    0.20 
   2   2   7   -0.10    0.20 
   2   2   7    0.17    0.24 
   2   2   7    0.22    0.38 
   2   2   7   -0.23    0.41 
   2   2   7    0.14    0.50 
   2   2   7   -0.01    0.47 
   2   2   6    6.40    0.44 
   2   2   6    8.19    0.72 
   2   2   6    8.61    0.78 
   2   2   6    9.07    0.50 
   2   2   6    8.90    0.47 
   2   2   6    9.51    0.48 
   2   2   6    9.07    0.35 
   2   2   6    8.50    0.34 
   2   2   6    9.35    0.38 
   2   2   6    6.58    0.64 
   2   2   6    8.49    0.73 
   2   2   6    9.22    0.72 
   2   2   6    8.56    0.81 
   2   2   6    7.05    0.64 
   2   2   6    6.81    0.63 
   2   2   5   21.17    0.75 
   2   2   5   20.71    0.69 
   2   2   5   24.34    0.72 
   2   2   5   23.59    0.72 
   2   2   5   23.75    0.59 
   2   2   5   24.19    0.59 
   2   2   5   24.06    0.62 
   2   2   5   22.35    1.01 
   2   2   5   22.60    1.10 
   2   2   5   22.23    0.92 
   2   2   5   21.57    0.91 
   2   2   5   24.94    1.04 
   2   2   5   23.45    1.05 
   2   2   5   22.72    0.93 
   2   2   5   26.44    0.96 
   2   2   5   25.14    1.14 
   2   2   4   13.79    0.59 
   2   2   4   13.25    0.51 
   2   2   4   13.18    0.57 
   2   2   4   13.40    0.57 
   2   2   4   12.43    0.42 
   2   2   4   14.50    0.84 
   2   2   4   13.61    0.87 
   2   2   4   12.81    0.42 
   2   2   4   13.13    0.45 
   2   2   4   12.90    0.74 
   2   2   4   13.61    0.66 
   2   2   4   14.04    0.91 
   2   2   4   11.59    0.80 
   2   2   4   14.09    0.92 
   2   2   4   11.91    0.55 
   2   2   4   13.51    0.67 
   2   2   4   13.51    0.67 
   2   2   3    3.88    0.57 
   2   2   3    2.71    0.30 
   2   2   3    2.87    0.63 
   2   2   3    3.78    0.39 
   2   2   3    2.31    0.50 
   2   2   3    3.48    0.35 
   2   2   3    2.75    0.28 
   2   2   3    2.75    0.43 
   2   2   3    3.03    0.68 
   2   2   3    2.48    0.31 
   2   2   3    2.74    0.28 
   2   2   3    3.93    0.39 
   2   2   3    3.92    0.39 
   2   2   2    0.06    0.30 
   2   2   2    0.19    0.43 
   2   2   2    0.09    0.31 
   2   2   2    0.11    0.24 
   2   2   2    0.39    0.55 
   2   2   2    0.51    0.35 
   2   2   2    0.31    0.22 
   2   2   2    0.34    0.22 
   2   2   2    0.01    0.41 
   2   2   2    0.09    0.21 
   2   2   2    0.34    0.21 
   2   2   2    0.14    0.44 
   2   2   1  286.99    5.01 
   2   2   1  266.25    4.31 
   2   2   1  270.21    4.31 
   2   2   1  242.91    4.46 
   2   2   1  253.41    4.59 
   2   2   1  250.87    4.59 
   2   2   1  284.85    4.35 
   2   2   1  319.73    5.21 
   2   2   0   72.10    1.34 
   2   2   0   73.03    1.33 
   2   2   0   83.56    1.47 
   2   2   0   92.43    1.89 
   2   2   0   84.46    1.78 
   2   2   0   92.91    1.91 
   2   2  -1   53.57    1.73 
   2   2  -1   78.29    1.86 
   2   2  -1   67.32    1.79 
   2   2  -1   64.82    1.31 
   2   2  -1   69.94    1.83 
   2   2  -1   79.58    2.00 
   2   2  -2  245.06    4.44 
   2   2  -2  196.99    3.76 
   2   2  -2  221.65    3.70 
   2   2  -2  287.56    4.68 
   2   2  -2  215.20    4.15 
   2   2  -2  242.91    4.43 
   2   2  -2  246.19    4.41 
   2   2  -2  211.87    4.27 
   2   2  -3  104.63    2.46 
   2   2  -3   94.83    1.85 
   2   2  -3   89.47    1.63 
   2   2  -3   93.28    2.42 
   2   2  -3   94.96    2.33 
   2   2  -3   98.06    2.39 
   2   2  -3  102.86    2.43 
   2   2  -4    1.07    0.54 
   2   2  -4    0.97    0.44 
   2   2  -4    0.32    0.64 
   2   2  -4    0.79    0.74 
   2   2  -4   -0.22    0.74 
   2   2  -4   -0.17    0.74 
   2   2  -4   -0.58    0.77 
   2   2  -5   18.03    1.00 
   2   2  -5   20.51    0.92 
   2   2  -5    9.67    1.02 
   2   2  -5   12.54    1.13 
   2   2  -5   13.91    1.26 
   2   2  -5   17.35    1.25 
   2   2  -5   13.35    1.08 
   2   2  -5   15.57    1.14 
   2   2  -6    4.31    0.84 
   2   2  -6    5.02    0.71 
   2   2  -6    3.77    0.92 
   2   2  -6    2.90    0.79 
   2   2  -6    4.02    1.08 
   2   2  -6    4.10    1.01 
   2   2  -6    2.65    0.79 
   2   2  -7    1.41    1.00 
   2   2  -7    2.33    0.75 
   2   2  -7    1.85    0.97 
   2   2  -7    0.89    0.81 
   2   2  -7    1.90    1.24 
   2   2  -7    1.19    1.16 
   2   2  -7    1.55    1.05 
   2   2  -7    1.58    0.90 
   2   2  -7   -0.88    1.01 
   2   2  -8   12.18    1.47 
   2   2  -8   12.33    1.51 
   2   2  -8    9.89    1.45 
   2   2  -8    1.32    1.01 
   2   2  -8   13.66    1.82 
   2   2  -8   21.80    1.81 
   2   2  -8    9.38    1.84 
   2   2  -8    2.21    1.42 
   2   2  -8    1.00    1.34 
   2   2  -8    9.06    1.45 
   2   2  -8    4.96    1.25 
   2   2  -8    7.06    1.72 
   2   2  -9    0.48    1.48 
   2   2  -9   -0.67    1.34 
   2   2  -9   -0.15    1.40 
   2   2  -9   -0.05    1.37 
   2   2  -9    0.91    1.24 
   2   2 -10    0.94    1.48 
   2   2 -10    1.48    1.43 
   2   2 -10    2.19    1.34 
   2   2 -10    0.84    1.42 
   2   2 -10    0.72    1.40 
   2   2 -11   27.63    1.66 
   2   1  12    1.73    0.49 
   2   1  12    3.87    0.38 
   2   1  12    0.25    0.50 
   2   1  12    2.49    0.39 
   2   1  11    0.81    0.35 
   2   1  11    0.77    0.34 
   2   1  11    0.26    0.78 
   2   1  11    0.48    0.58 
   2   1  11    0.88    0.47 
   2   1  11    0.46    0.35 
   2   1  10    0.06    0.85 
   2   1  10    0.03    0.44 
   2   1  10    0.98    0.42 
   2   1  10   -0.22    0.29 
   2   1  10   -0.44    0.30 
   2   1  10   -0.53    0.92 
   2   1  10   -0.47    0.68 
   2   1  10    0.28    0.56 
   2   1  10    0.37    0.43 
   2   1  10    0.43    0.50 
   2   1   9   53.91    1.56 
   2   1   9   43.19    1.61 
   2   1   9   43.30    1.61 
   2   1   9   47.58    1.95 
   2   1   9   36.14    1.51 
   2   1   9   48.90    1.76 
   2   1   9   49.43    1.74 
   2   1   9   55.77    1.26 
   2   1   9   56.97    1.17 
   2   1   9   56.87    1.16 
   2   1   9   53.37    1.12 
   2   1   9   48.64    1.75 
   2   1   9   47.43    1.77 
   2   1   8    3.58    1.03 
   2   1   8    3.62    0.76 
   2   1   8    7.18    0.98 
   2   1   8    5.45    0.73 
   2   1   8    5.73    0.71 
   2   1   8    4.93    0.69 
   2   1   8    7.06    0.43 
   2   1   8    7.22    0.43 
   2   1   8    6.85    0.36 
   2   1   8    4.00    0.59 
   2   1   8    4.31    0.60 
   2   1   8    5.44    0.66 
   2   1   8    5.37    0.63 
   2   1   8    6.13    0.71 
   2   1   8    5.45    0.74 
   2   1   7   25.92    1.54 
   2   1   7   31.62    1.36 
   2   1   7   65.34    1.98 
   2   1   7   56.73    1.70 
   2   1   7   60.31    1.75 
   2   1   7   54.21    1.15 
   2   1   7   61.23    1.16 
   2   1   7   60.74    1.15 
   2   1   7   49.46    1.68 
   2   1   7   58.12    1.11 
   2   1   7   45.55    1.53 
   2   1   7   47.03    1.60 
   2   1   7   46.94    1.59 
   2   1   7   55.49    1.69 
   2   1   7   54.63    1.71 
   2   1   7   60.43    1.67 
   2   1   6   63.46    1.79 
   2   1   6   55.72    1.60 
   2   1   6   53.39    1.58 
   2   1   6   50.20    1.07 
   2   1   6   49.37    1.07 
   2   1   6   48.76    1.54 
   2   1   6   54.65    1.06 
   2   1   6   53.18    1.02 
   2   1   6   41.63    1.14 
   2   1   6   44.74    1.33 
   2   1   6   46.11    1.40 
   2   1   6   53.65    1.57 
   2   1   6   48.68    1.52 
   2   1   6   50.37    1.53 
   2   1   5   59.29    1.64 
   2   1   5   57.65    1.53 
   2   1   5   53.60    1.52 
   2   1   5   47.16    1.42 
   2   1   5   54.62    1.29 
   2   1   5   53.67    1.02 
   2   1   5   49.89    0.98 
   2   1   5   48.74    1.04 
   2   1   5   48.81    1.04 
   2   1   5   45.97    1.17 
   2   1   5   56.18    1.52 
   2   1   5   50.11    1.47 
   2   1   5   48.45    1.25 
   2   1   5   45.78    1.30 
   2   1   4  269.37    4.44 
   2   1   4  256.88    4.63 
   2   1   4  236.78    4.13 
   2   1   4  260.52    4.15 
   2   1   4  288.99    4.81 
   2   1   4  283.86    4.74 
   2   1   4  248.67    4.73 
   2   1   4  253.38    4.39 
   2   1   4  255.30    4.19 
   2   1   4  261.81    4.74 
   2   1   4  247.42    4.34 
   2   1   4  255.25    4.62 
   2   1   4  246.12    4.45 
   2   1   4  252.63    4.60 
   2   1   3  141.70    2.50 
   2   1   3  150.23    2.79 
   2   1   3  148.27    2.77 
   2   1   3  138.46    2.61 
   2   1   3  131.66    2.67 
   2   1   3  149.20    2.79 
   2   1   3  151.76    2.98 
   2   1   3  145.92    3.02 
   2   1   3  145.00    2.62 
   2   1   3  144.41    2.41 
   2   1   3  154.61    3.02 
   2   1   2   64.71    1.26 
   2   1   2   68.68    1.41 
   2   1   2   69.45    1.40 
   2   1   2   60.64    1.45 
   2   1   2   63.63    1.37 
   2   1   2   61.51    1.72 
   2   1   2   72.89    1.71 
   2   1   2   58.69    1.32 
   2   1   2   58.73    1.09 
   2   1   1   54.56    1.21 
   2   1   1   58.74    1.26 
   2   1   1   62.80    1.14 
   2   1   1   59.38    1.25 
   2   1   1   70.07    1.61 
   2   1   1   55.86    1.23 
   2   1   1   54.45    1.22 
   2   1   1   67.62    1.74 
   2   1   0 1310.63   21.36 
   2   1   0 1306.39   21.37 
   2   1  -1   23.89    0.81 
   2   1  -1   29.03    0.89 
   2   1  -1   23.32    0.61 
   2   1  -1   28.94    0.90 
   2   1  -2  291.84    4.68 
   2   1  -2  297.19    4.81 
   2   1  -3   32.50    1.10 
   2   1  -3   26.41    0.64 
   2   1  -3   32.68    0.83 
   2   1  -3   29.12    0.89 
   2   1  -3   29.51    0.61 
   2   1  -4    3.81    0.59 
   2   1  -4    3.16    0.50 
   2   1  -4    4.28    0.46 
   2   1  -4    5.14    0.63 
   2   1  -5    0.38    0.48 
   2   1  -5    1.14    0.47 
   2   1  -5    0.51    0.63 
   2   1  -5    0.32    0.51 
   2   1  -5    1.16    0.73 
   2   1  -6   35.18    1.82 
   2   1  -6   38.84    1.30 
   2   1  -6   28.18    1.38 
   2   1  -6   40.74    1.61 
   2   1  -6   27.99    1.03 
   2   1  -6   28.00    1.02 
   2   1  -6   25.89    1.50 
   2   1  -7    2.49    1.13 
   2   1  -7    1.73    1.02 
   2   1  -7    1.56    0.71 
   2   1  -7    0.95    0.62 
   2   1  -7    1.69    0.70 
   2   1  -7    1.26    0.73 
   2   1  -7    0.76    1.06 
   2   1  -7    0.29    1.08 
   2   1  -8    2.14    1.32 
   2   1  -8    3.17    1.31 
   2   1  -8    2.50    0.95 
   2   1  -8    1.74    0.77 
   2   1  -8    1.70    0.82 
   2   1  -8    1.75    0.91 
   2   1  -8    2.12    1.29 
   2   1  -8    0.91    0.95 
   2   1  -8    0.22    1.18 
   2   1  -8    1.23    0.99 
   2   1  -8    0.60    1.38 
   2   1  -9   -0.10    1.51 
   2   1  -9    2.03    1.44 
   2   1  -9    1.31    0.85 
   2   1  -9    1.45    0.93 
   2   1  -9   -0.88    1.39 
   2   1  -9    2.90    1.39 
   2   1 -10   -0.66    1.40 
   2   1 -10   -2.39    1.56 
   2   1 -10    1.00    1.66 
   2   1 -10    1.19    1.57 
   2   1 -11    2.92    1.46 
   2   1 -11    2.22    1.46 
   2   0  12   -0.12    0.48 
   2   0  12   -0.07    0.33 
   2   0  12   -0.15    0.55 
   2   0  12   -0.15    0.39 
   2   0  11    0.07    0.80 
   2   0  11    0.04    0.57 
   2   0  11   -0.04    0.31 
   2   0  11    0.08    0.28 
   2   0  11   -0.26    0.33 
   2   0  11   -0.24    0.45 
   2   0  11   -0.12    0.24 
   2   0  11    0.24    0.26 
   2   0  10   22.18    1.50 
   2   0  10   12.49    0.93 
   2   0  10   13.32    0.99 
   2   0  10   13.94    0.56 
   2   0  10   14.57    0.55 
   2   0  10   17.91    0.59 
   2   0  10   12.96    0.79 
   2   0  10    1.52    1.20 
   2   0  10    8.05    0.90 
   2   0  10   17.56    0.88 
   2   0   9    6.61    1.21 
   2   0   9    4.68    0.87 
   2   0   9   12.40    1.20 
   2   0   9    8.76    0.89 
   2   0   9    9.65    0.95 
   2   0   9    9.73    0.51 
   2   0   9   10.10    0.50 
   2   0   9    5.25    0.53 
   2   0   9    7.60    0.67 
   2   0   9    8.06    0.68 
   2   0   9    8.12    0.76 
   2   0   9    7.99    0.79 
   2   0   9   10.32    0.79 
   2   0   8   -0.47    0.58 
   2   0   8    0.30    0.53 
   2   0   8    0.30    0.36 
   2   0   8   -0.26    0.51 
   2   0   8    0.65    0.38 
   2   0   8   -0.64    1.03 
   2   0   8   -0.09    0.73 
   2   0   8   -0.23    0.93 
   2   0   8   -0.42    0.64 
   2   0   8    0.18    0.47 
   2   0   8    1.02    0.34 
   2   0   8    0.88    0.35 
   2   0   8    0.43    0.39 
   2   0   8   -0.06    0.68 
   2   0   8   -0.10    0.52 
   2   0   7   -0.07    0.44 
   2   0   7    0.39    0.48 
   2   0   7   -1.61    0.96 
   2   0   7   -0.64    0.69 
   2   0   7   -0.05    0.67 
   2   0   7    0.20    0.40 
   2   0   7    0.21    0.56 
   2   0   7    0.04    0.36 
   2   0   7    0.48    0.32 
   2   0   7    0.34    0.33 
   2   0   7    0.12    0.31 
   2   0   7    0.03    0.19 
   2   0   7    0.31    0.50 
   2   0   7    0.06    0.38 
   2   0   7    0.16    0.37 
   2   0   7   -0.18    0.39 
   2   0   7    0.29    0.50 
   2   0   7    0.16    0.59 
   2   0   7    0.01    0.38 
   2   0   6   25.98    0.83 
   2   0   6   32.58    1.25 
   2   0   6   31.76    1.19 
   2   0   6   29.05    1.02 
   2   0   6   31.99    0.76 
   2   0   6   32.07    0.75 
   2   0   6   30.78    0.74 
   2   0   6   29.36    1.19 
   2   0   6   30.83    1.21 
   2   0   6   28.46    0.64 
   2   0   6   31.09    0.71 
   2   0   6   28.75    1.02 
   2   0   6   28.96    1.10 
   2   0   6   27.68    1.09 
   2   0   6   28.13    1.08 
   2   0   6   26.67    1.05 
   2   0   6   30.56    1.15 
   2   0   5    1.65    0.38 
   2   0   5    1.92    0.55 
   2   0   5    1.84    0.33 
   2   0   5    2.05    0.50 
   2   0   5    1.97    0.54 
   2   0   5    1.80    0.27 
   2   0   5    1.72    0.17 
   2   0   5    1.10    0.30 
   2   0   5    1.34    0.44 
   2   0   5    1.64    0.42 
   2   0   5    1.71    0.39 
   2   0   5    1.67    0.42 
   2   0   5    1.92    0.49 
   2   0   5    1.52    0.43 
   2   0   5    1.87    0.48 
   2   0   4   34.39    0.71 
   2   0   4   36.06    1.12 
   2   0   4   32.81    0.98 
   2   0   4   34.35    1.07 
   2   0   4   35.88    1.16 
   2   0   4   37.11    1.17 
   2   0   4   36.48    1.11 
   2   0   4   34.40    1.07 
   2   0   3  410.36    6.65 
   2   0   3  441.80    7.13 
   2   0   3  381.81    7.00 
   2   0   3  434.49    7.14 
   2   0   3  464.14    7.18 
   2   0   3  426.22    6.98 
   2   0   3  429.43    7.09 
   2   0   3  444.46    7.15 
   2   0   3  434.47    7.11 
   2   0   3  391.10    6.73 
   2   0   3  440.26    7.19 
   2   0   3  458.71    7.21 
   2   0   2    9.32    0.48 
   2   0   2    9.97    0.55 
   2   0   2   11.14    0.59 
   2   0   2    9.48    0.55 
   2   0   2    8.61    0.34 
   2   0   2    9.81    0.54 
   2   0   2    9.25    0.54 
   2   0   2    8.04    0.34 
   2   0   1  158.94    2.81 
   2   0   1  221.25    3.07 
   2   0   1  169.83    3.17 
   2   0   1  203.11    3.43 
   2   0   1  149.44    3.08 
   2   0   1  182.90    3.12 
   2   0   0  184.82    2.67 
   2   0   0  146.51    2.67 
   2   0  -1   24.37    0.48 
   2   0  -2   74.31    1.35 
   2   0  -3  137.83    2.56 
   2   0  -3  137.76    2.58 
   2   0  -4   24.46    0.97 
   2   0  -4   22.23    0.73 
   2   0  -4   21.15    0.80 
   2   0  -4   21.07    0.80 
   2   0  -4   20.76    0.77 
   2   0  -4   23.84    0.74 
   2   0  -5    0.47    0.36 
   2   0  -5    0.79    0.46 
   2   0  -5    0.80    0.41 
   2   0  -5    0.76    0.45 
   2   0  -5    0.51    0.44 
   2   0  -5    0.50    0.61 
   2   0  -6    0.12    0.95 
   2   0  -6    0.27    0.96 
   2   0  -6   -0.57    0.57 
   2   0  -6    0.47    0.75 
   2   0  -7   -0.59    1.19 
   2   0  -7    0.31    1.17 
   2   0  -7    0.25    0.61 
   2   0  -7    0.71    1.04 
   2   0  -7    0.46    0.98 
   2   0  -8   59.64    2.66 
   2   0  -8    3.85    1.83 
   2   0  -8   58.22    1.70 
   2   0  -8   58.39    1.67 
   2   0  -8   40.20    2.19 
   2   0  -8    6.86    1.95 
   2   0  -8   40.51    2.95 
   2   0  -8   47.84    2.22 
   2   0  -8   59.30    2.86 
   2   0  -9    0.10    1.44 
   2   0  -9    0.53    0.90 
   2   0  -9    1.42    0.97 
   2   0  -9    0.58    1.68 
   2   0 -10   15.94    1.26 
   2   0 -10   16.94    1.35 
   2   0 -10   20.48    2.20 
   2  -1  12    0.41    0.29 
   2  -1  12   -0.08    0.56 
   2  -1  12    0.03    0.36 
   2  -1  11    0.44    0.27 
   2  -1  11    0.40    0.28 
   2  -1  11    1.15    0.46 
   2  -1  11    0.31    0.28 
   2  -1  11    0.01    0.82 
   2  -1  11    0.73    0.57 
   2  -1  11    0.31    0.33 
   2  -1  10    6.38    0.86 
   2  -1  10   14.94    1.22 
   2  -1  10    9.37    0.83 
   2  -1  10    9.14    0.56 
   2  -1  10   10.67    0.51 
   2  -1  10   10.80    0.50 
   2  -1  10   13.42    0.53 
   2  -1  10    9.34    0.75 
   2  -1  10   10.70    0.89 
   2  -1  10    9.16    0.76 
   2  -1  10   13.52    0.82 
   2  -1   9    1.32    0.58 
   2  -1   9    0.90    0.40 
   2  -1   9    0.46    0.44 
   2  -1   9    1.17    0.38 
   2  -1   9    0.80    0.36 
   2  -1   9    0.92    1.13 
   2  -1   9    0.60    0.82 
   2  -1   9    1.86    0.92 
   2  -1   9    1.24    0.59 
   2  -1   9    1.66    0.47 
   2  -1   9    1.30    0.38 
   2  -1   9    1.09    0.38 
   2  -1   9    1.16    0.53 
   2  -1   9    1.04    0.65 
   2  -1   9    0.86    0.49 
   2  -1   8  117.12    2.10 
   2  -1   8  119.85    2.88 
   2  -1   8  113.92    1.92 
   2  -1   8   97.45    2.07 
   2  -1   8  121.46    2.80 
   2  -1   8  112.32    2.78 
   2  -1   8  102.57    2.57 
   2  -1   8  107.32    2.58 
   2  -1   8  121.36    2.81 
   2  -1   8  113.06    2.71 
   2  -1   8  125.55    2.66 
   2  -1   7    3.36    0.58 
   2  -1   7    3.33    0.42 
   2  -1   7    3.22    0.66 
   2  -1   7    3.97    0.35 
   2  -1   7    4.17    0.84 
   2  -1   7    3.40    0.51 
   2  -1   7    3.62    0.56 
   2  -1   7    2.95    0.49 
   2  -1   7    3.87    0.65 
   2  -1   7    2.88    0.54 
   2  -1   7    3.08    0.58 
   2  -1   6    7.97    0.47 
   2  -1   6   10.06    0.44 
   2  -1   6   10.12    0.75 
   2  -1   6   10.20    0.39 
   2  -1   6   10.79    0.81 
   2  -1   6   10.37    0.74 
   2  -1   6    9.67    0.72 
   2  -1   6    9.55    0.68 
   2  -1   6    9.99    0.69 
   2  -1   6    9.92    0.67 
   2  -1   6    9.50    0.74 
   2  -1   6    8.61    0.66 
   2  -1   6    8.98    0.62 
   2  -1   5   11.22    0.64 
   2  -1   5   10.50    0.71 
   2  -1   5   10.54    0.38 
   2  -1   5   11.10    0.43 
   2  -1   5   10.74    0.71 
   2  -1   5    8.71    0.67 
   2  -1   5   11.48    0.71 
   2  -1   5   12.12    0.72 
   2  -1   5   11.61    0.76 
   2  -1   5   11.06    0.69 
   2  -1   5   10.05    0.65 
   2  -1   5    9.34    0.57 
   2  -1   4   23.35    0.85 
   2  -1   4   23.24    1.06 
   2  -1   4   23.64    0.91 
   2  -1   4   20.45    0.51 
   2  -1   4   22.62    0.57 
   2  -1   4   22.74    0.86 
   2  -1   4   20.56    0.76 
   2  -1   4   22.47    0.86 
   2  -1   4   24.02    0.91 
   2  -1   4   24.29    1.00 
   2  -1   4   24.67    1.03 
   2  -1   4   24.81    0.96 
   2  -1   4   24.19    0.95 
   2  -1   3  349.30    6.18 
   2  -1   3  348.65    6.22 
   2  -1   3  356.46    6.28 
   2  -1   3  363.02    6.03 
   2  -1   3  361.61    6.01 
   2  -1   3  346.25    5.91 
   2  -1   3  346.75    5.93 
   2  -1   3  348.06    5.94 
   2  -1   3  358.24    6.04 
   2  -1   2    2.25    0.56 
   2  -1   2    2.62    0.46 
   2  -1   2    2.24    0.43 
   2  -1   2    2.71    0.42 
   2  -1   2    2.12    0.39 
   2  -1   2    2.27    0.39 
   2  -1   2    3.59    0.40 
   2  -1   2    3.57    0.37 
   2  -1   2    2.35    0.56 
   2  -1   1  266.81    4.66 
   2  -1   1  266.36    4.66 
   2  -1   1  241.41    4.55 
   2  -1   1  289.81    4.66 
   2  -1   1  302.08    4.68 
   2  -1   0   10.20    0.54 
   2  -1  -1  134.60    2.21 
   2  -1  -2  491.45    7.77 
   2  -1  -3  213.46    3.37 
   2  -1  -3  203.68    3.50 
   2  -1  -3  208.47    3.57 
   2  -1  -4   75.25    1.71 
   2  -1  -4   72.72    1.78 
   2  -1  -5    0.46    0.59 
   2  -1  -5    0.07    0.46 
   2  -1  -5    0.52    0.80 
   2  -1  -5   -0.13    0.41 
   2  -1  -5   -0.05    0.80 
   2  -1  -5    0.13    0.34 
   2  -1  -5   -0.16    0.49 
   2  -1  -6    8.14    0.96 
   2  -1  -6    9.66    0.87 
   2  -1  -6    9.92    0.78 
   2  -1  -6    8.39    0.74 
   2  -1  -6    9.72    0.90 
   2  -1  -7   47.82    1.95 
   2  -1  -7   48.46    1.95 
   2  -1  -7   43.63    1.79 
   2  -1  -8   18.34    2.65 
   2  -1  -8   54.13    3.52 
   2  -1  -8   63.36    2.42 
   2  -1  -8   80.89    3.28 
   2  -1  -8   10.50    2.34 
   2  -1  -9   92.91    3.76 
   2  -1  -9   92.32    2.31 
   2  -1  -9   87.87    2.25 
   2  -1  -9    4.17    2.47 
   2  -1  -9    9.97    2.65 
   2  -1 -10   -0.67    1.00 
   2  -1 -10    0.69    1.06 
   2  -1 -10   -1.22    1.63 
   2  -1 -11    0.01    0.92 
   2  -1 -11    0.61    1.01 
   2  -2  12   -0.05    0.45 
   2  -2  12   -0.02    0.29 
   2  -2  12    0.13    0.23 
   2  -2  11   -0.23    0.27 
   2  -2  11   -0.20    0.28 
   2  -2  11    0.19    0.74 
   2  -2  11    0.37    0.52 
   2  -2  11   -0.20    0.24 
   2  -2  11    0.23    0.39 
   2  -2  11    0.26    0.29 
   2  -2  10    4.48    0.43 
   2  -2  10    4.73    0.64 
   2  -2  10    5.21    0.38 
   2  -2  10    3.16    0.76 
   2  -2  10    4.56    0.60 
   2  -2   9    1.03    1.21 
   2  -2   9    1.73    0.90 
   2  -2   9    5.70    0.94 
   2  -2   9    4.76    0.50 
   2  -2   9    4.05    0.29 
   2  -2   9    5.45    0.44 
   2  -2   9    3.79    0.26 
   2  -2   9    5.15    0.63 
   2  -2   9    4.35    0.67 
   2  -2   9    4.93    0.74 
   2  -2   9    4.86    0.66 
   2  -2   9    4.85    0.52 
   2  -2   8  165.50    3.41 
   2  -2   8  147.58    3.01 
   2  -2   8  157.83    3.59 
   2  -2   8  155.59    2.78 
   2  -2   8  156.11    2.80 
   2  -2   8  156.19    2.79 
   2  -2   8  154.26    2.72 
   2  -2   8  150.56    2.64 
   2  -2   8  165.16    2.75 
   2  -2   8  145.90    3.39 
   2  -2   8  171.03    3.61 
   2  -2   8  136.44    3.22 
   2  -2   8  159.15    3.60 
   2  -2   8  140.33    3.22 
   2  -2   8  154.47    3.50 
   2  -2   8  169.71    3.75 
   2  -2   8  159.78    3.60 
   2  -2   7    6.68    0.84 
   2  -2   7    4.61    0.71 
   2  -2   7    5.47    0.44 
   2  -2   7    4.95    0.40 
   2  -2   7    5.14    0.39 
   2  -2   7    6.08    0.31 
   2  -2   7    5.55    0.38 
   2  -2   7    3.71    1.01 
   2  -2   7    5.00    0.62 
   2  -2   7    4.82    0.64 
   2  -2   7    4.70    0.57 
   2  -2   7    5.11    0.58 
   2  -2   7    5.53    0.70 
   2  -2   7    4.78    0.68 
   2  -2   7    5.76    0.77 
   2  -2   6    3.90    0.65 
   2  -2   6    3.88    0.60 
   2  -2   6    4.52    0.56 
   2  -2   6    4.01    0.62 
   2  -2   6    3.83    0.37 
   2  -2   6    3.93    0.35 
   2  -2   6    3.64    0.33 
   2  -2   6    4.14    0.31 
   2  -2   6    3.38    0.52 
   2  -2   6    4.60    0.70 
   2  -2   6    3.88    0.57 
   2  -2   6    3.92    0.62 
   2  -2   6    4.00    0.51 
   2  -2   6    4.14    0.52 
   2  -2   5   51.12    1.42 
   2  -2   5   48.96    1.42 
   2  -2   5   56.91    1.53 
   2  -2   5   44.54    0.97 
   2  -2   5   47.66    0.98 
   2  -2   5   46.55    0.97 
   2  -2   5   46.46    0.93 
   2  -2   5   46.62    1.32 
   2  -2   5   44.97    1.18 
   2  -2   5   55.11    1.65 
   2  -2   5   52.75    1.52 
   2  -2   5   53.12    1.51 
   2  -2   5   52.29    1.63 
   2  -2   5   50.59    1.38 
   2  -2   5   51.25    1.45 
   2  -2   4  178.11    3.10 
   2  -2   4  168.62    3.14 
   2  -2   4  179.61    3.24 
   2  -2   4  150.12    2.63 
   2  -2   4  160.15    2.66 
   2  -2   4  161.06    2.66 
   2  -2   4  151.76    2.60 
   2  -2   4  177.73    3.50 
   2  -2   4  169.61    3.47 
   2  -2   4  163.28    3.31 
   2  -2   4  162.32    3.28 
   2  -2   4  165.46    3.14 
   2  -2   4  151.74    3.02 
   2  -2   4  153.12    2.84 
   2  -2   4  158.17    3.02 
   2  -2   3   46.28    1.18 
   2  -2   3   49.60    1.21 
   2  -2   3   45.53    1.01 
   2  -2   3   50.18    1.28 
   2  -2   3   49.91    1.58 
   2  -2   3   52.61    1.36 
   2  -2   3   41.62    1.13 
   2  -2   3   42.40    1.12 
   2  -2   3   50.52    1.59 
   2  -2   3   49.31    1.16 
   2  -2   3   50.05    1.26 
   2  -2   2  382.99    3.96 
   2  -2   2  386.50    4.85 
   2  -2   2  360.36    3.69 
   2  -2   2  405.53    4.06 
   2  -2   2  407.83    3.65 
   2  -2   2  430.23    4.37 
   2  -2   2  400.30    4.88 
   2  -2   2  429.68    4.15 
   2  -2   1  199.51    3.22 
   2  -2   1  214.58    3.07 
   2  -2   1  238.95    3.30 
   2  -2   1  149.48    3.00 
   2  -2   1  162.88    3.01 
   2  -2   1  174.12    3.05 
   2  -2   1  233.90    3.61 
   2  -2   1  241.62    3.75 
   2  -2   1  241.65    3.75 
   2  -2   1  202.39    3.36 
   2  -2   0  247.85    5.09 
   2  -2   0  380.13    5.37 
   2  -2   0  382.85    5.39 
   2  -2   0  247.86    4.60 
   2  -2   0  321.68    4.92 
   2  -2   0  316.54    5.07 
   2  -2   0  257.40    4.78 
   2  -2   0  315.95    4.82 
   2  -2   0  316.87    4.83 
   2  -2  -1   74.86    1.68 
   2  -2  -1   73.28    1.62 
   2  -2  -1   73.31    1.62 
   2  -2  -2  161.42    3.12 
   2  -2  -2  161.92    3.15 
   2  -2  -3  180.89    3.53 
   2  -2  -3  186.92    3.27 
   2  -2  -4    4.75    0.46 
   2  -2  -4    3.36    0.83 
   2  -2  -4    5.73    0.58 
   2  -2  -4    3.52    0.85 
   2  -2  -4    3.36    0.86 
   2  -2  -5   17.96    1.05 
   2  -2  -5   12.83    1.31 
   2  -2  -5   10.00    1.34 
   2  -2  -5   16.90    0.96 
   2  -2  -5   12.36    1.35 
   2  -2  -5   15.58    0.83 
   2  -2  -5   19.33    1.08 
   2  -2  -6   57.75    2.07 
   2  -2  -6   28.81    2.32 
   2  -2  -6   57.24    1.86 
   2  -2  -6   41.16    2.40 
   2  -2  -6   56.07    1.35 
   2  -2  -6   54.10    1.36 
   2  -2  -6   46.57    1.68 
   2  -2  -6   30.38    2.36 
   2  -2  -6   58.41    2.09 
   2  -2  -7    1.84    0.77 
   2  -2  -7    1.91    0.72 
   2  -2  -7    1.56    0.93 
   2  -2  -7    2.20    0.99 
   2  -2  -7    2.20    0.77 
   2  -2  -8  115.90    2.68 
   2  -2  -8  131.88    3.69 
   2  -2  -8  130.33    3.64 
   2  -2  -8  110.42    3.25 
   2  -2  -9   11.11    1.31 
   2  -2  -9    9.85    1.21 
   2  -2 -10    5.08    1.12 
   2  -2 -10    4.85    1.17 
   2  -2 -11    8.74    1.88 
   2  -2 -11    7.31    1.88 
   2  -3  12    0.03    0.28 
   2  -3  11    0.01    0.66 
   2  -3  11    0.59    0.47 
   2  -3  10    0.46    0.44 
   2  -3  10    0.45    0.32 
   2  -3  10    0.63    0.30 
   2  -3  10    0.29    0.31 
   2  -3  10    1.18    0.69 
   2  -3  10    0.42    0.33 
   2  -3  10    0.16    0.41 
   2  -3   9    8.56    0.49 
   2  -3   9   10.05    0.48 
   2  -3   9    9.91    0.50 
   2  -3   9    9.65    0.46 
   2  -3   9    7.38    0.31 
   2  -3   9    8.38    0.80 
   2  -3   9    9.43    0.76 
   2  -3   9   10.12    0.61 
   2  -3   9    7.55    0.73 
   2  -3   9    7.84    0.71 
   2  -3   8    6.06    0.80 
   2  -3   8    6.11    0.51 
   2  -3   8    5.76    0.51 
   2  -3   8    6.39    0.50 
   2  -3   8    7.42    0.44 
   2  -3   8    6.80    0.33 
   2  -3   8    5.72    0.65 
   2  -3   8    7.15    0.75 
   2  -3   8    6.81    0.74 
   2  -3   8    6.63    0.76 
   2  -3   7   29.53    1.13 
   2  -3   7   34.16    1.41 
   2  -3   7   36.81    1.49 
   2  -3   7   28.11    1.17 
   2  -3   7   27.73    1.16 
   2  -3   7   28.85    1.19 
   2  -3   7   30.10    0.83 
   2  -3   7   32.14    0.85 
   2  -3   7   32.95    0.84 
   2  -3   7   33.87    0.82 
   2  -3   7   34.70    0.81 
   2  -3   7   33.50    0.74 
   2  -3   7   31.19    1.24 
   2  -3   7   36.03    1.52 
   2  -3   7   30.67    1.33 
   2  -3   6    3.22    0.61 
   2  -3   6    3.64    0.58 
   2  -3   6    2.56    0.35 
   2  -3   6    3.43    0.35 
   2  -3   6    3.09    0.33 
   2  -3   6    2.58    0.30 
   2  -3   6    2.93    0.26 
   2  -3   6    2.66    0.47 
   2  -3   6    3.03    0.59 
   2  -3   6    2.58    0.48 
   2  -3   6    3.70    0.69 
   2  -3   6    2.16    0.46 
   2  -3   6    2.94    0.69 
   2  -3   6    2.48    0.52 
   2  -3   5    6.34    0.65 
   2  -3   5    5.88    0.37 
   2  -3   5    6.72    0.35 
   2  -3   5    6.69    0.34 
   2  -3   5    6.41    0.80 
   2  -3   5    5.78    0.62 
   2  -3   5    5.65    0.61 
   2  -3   5    6.65    0.65 
   2  -3   5    5.13    0.51 
   2  -3   5    6.27    0.61 
   2  -3   5    5.64    0.54 
   2  -3   5    6.75    0.80 
   2  -3   4   31.88    1.00 
   2  -3   4   33.44    1.41 
   2  -3   4   31.28    0.74 
   2  -3   4   30.94    0.73 
   2  -3   4   35.48    1.47 
   2  -3   4   35.96    1.15 
   2  -3   4   31.90    1.00 
   2  -3   4   34.67    1.11 
   2  -3   4   36.88    1.26 
   2  -3   3   99.10    1.72 
   2  -3   3   98.81    1.72 
   2  -3   3  103.79    2.65 
   2  -3   3   93.71    1.93 
   2  -3   3  106.71    2.12 
   2  -3   3  101.30    2.02 
   2  -3   3  106.20    2.33 
   2  -3   3   91.64    2.14 
   2  -3   3   89.78    2.11 
   2  -3   3  110.79    2.20 
   2  -3   2  205.26    3.65 
   2  -3   2  193.49    2.61 
   2  -3   2  231.56    2.87 
   2  -3   2  224.89    2.70 
   2  -3   2  239.81    2.96 
   2  -3   2  199.61    3.19 
   2  -3   2   36.65    2.48 
   2  -3   2   35.63    2.48 
   2  -3   1   11.09    0.48 
   2  -3   1   10.51    0.78 
   2  -3   0   81.94    2.19 
   2  -3   0   53.68    1.46 
   2  -3   0   61.74    1.62 
   2  -3   0   50.64    1.34 
   2  -3   0   47.95    1.31 
   2  -3   0   46.70    1.56 
   2  -3   0   77.35    1.98 
   2  -3   0   75.48    1.96 
   2  -3  -1   42.79    1.31 
   2  -3  -1   40.64    1.46 
   2  -3  -1   36.70    1.20 
   2  -3  -1   34.97    1.17 
   2  -3  -1   47.87    1.61 
   2  -3  -1   47.85    1.60 
   2  -3  -2    8.06    0.48 
   2  -3  -2    5.50    0.76 
   2  -3  -2    5.49    0.74 
   2  -3  -2    6.57    0.77 
   2  -3  -2    4.04    0.87 
   2  -3  -3   47.80    1.38 
   2  -3  -3   31.20    1.53 
   2  -3  -3   20.77    1.63 
   2  -3  -3   38.93    1.04 
   2  -3  -3   32.82    1.45 
   2  -3  -3   44.78    1.34 
   2  -3  -3   32.32    1.43 
   2  -3  -4    5.56    0.66 
   2  -3  -4    4.27    0.91 
   2  -3  -4    3.85    0.91 
   2  -3  -4    5.73    0.60 
   2  -3  -4    3.60    0.93 
   2  -3  -4    4.26    0.59 
   2  -3  -5    1.33    0.46 
   2  -3  -5   -0.37    1.06 
   2  -3  -5    0.93    0.97 
   2  -3  -5    0.17    1.00 
   2  -3  -5   -1.16    1.04 
   2  -3  -5    1.55    0.64 
   2  -3  -6   14.80    1.31 
   2  -3  -6   15.19    1.19 
   2  -3  -6    7.86    1.58 
   2  -3  -6    8.14    1.64 
   2  -3  -6    4.24    1.57 
   2  -3  -6    9.39    1.64 
   2  -3  -6   11.62    0.93 
   2  -3  -6   13.96    1.30 
   2  -3  -7    0.70    1.71 
   2  -3  -7    3.59    1.74 
   2  -3  -7    4.56    0.76 
   2  -3  -7    4.89    0.73 
   2  -3  -7    0.36    1.79 
   2  -3  -7    0.37    1.75 
   2  -3  -7    5.35    1.02 
   2  -3  -7    3.89    0.86 
   2  -3  -7    5.82    1.25 
   2  -3  -7    6.71    1.28 
   2  -3  -8    0.89    0.91 
   2  -3  -8    0.04    1.07 
   2  -3  -8    0.49    1.09 
   2  -3  -9    5.56    0.97 
   2  -3  -9    3.36    1.53 
   2  -3  -9    4.47    1.18 
   2  -3  -9    5.22    1.25 
   2  -3 -10    0.61    0.97 
   2  -3 -10    0.87    1.06 
   2  -4  11    0.88    0.25 
   2  -4  11    0.02    0.49 
   2  -4  11    0.37    0.33 
   2  -4  10    0.19    0.25 
   2  -4  10    0.04    0.27 
   2  -4  10    0.36    0.83 
   2  -4  10    0.73    0.58 
   2  -4  10    0.12    0.28 
   2  -4   9    1.52    0.44 
   2  -4   9    1.82    0.33 
   2  -4   9    1.97    0.36 
   2  -4   9    0.92    0.20 
   2  -4   9    1.25    0.52 
   2  -4   9    2.04    0.57 
   2  -4   9    1.68    0.50 
   2  -4   8    6.63    0.72 
   2  -4   8    7.38    0.45 
   2  -4   8    9.80    0.51 
   2  -4   8    9.14    0.48 
   2  -4   8    7.33    0.33 
   2  -4   8    5.60    1.10 
   2  -4   8    8.43    0.79 
   2  -4   8    8.21    0.74 
   2  -4   8    8.10    0.79 
   2  -4   7    1.30    0.40 
   2  -4   7    0.78    0.55 
   2  -4   7    1.03    0.57 
   2  -4   7    1.58    0.56 
   2  -4   7    1.63    0.28 
   2  -4   7    1.69    0.29 
   2  -4   7    1.13    0.35 
   2  -4   7    1.23    0.36 
   2  -4   7    1.95    0.52 
   2  -4   7    1.64    0.59 
   2  -4   7    1.90    0.26 
   2  -4   7    1.24    0.55 
   2  -4   7    2.54    0.62 
   2  -4   6    0.29    0.39 
   2  -4   6   -0.02    0.53 
   2  -4   6    0.23    0.30 
   2  -4   6   -0.05    0.32 
   2  -4   6   -0.28    0.36 
   2  -4   6    0.55    0.58 
   2  -4   6   -0.20    0.35 
   2  -4   6    0.37    0.54 
   2  -4   6    0.25    0.49 
   2  -4   6   -0.44    0.52 
   2  -4   5    0.06    0.50 
   2  -4   5    1.98    0.51 
   2  -4   5    1.53    0.45 
   2  -4   5    2.48    0.73 
   2  -4   5    1.36    0.44 
   2  -4   5    1.89    0.29 
   2  -4   5    1.55    0.29 
   2  -4   5    1.42    0.63 
   2  -4   5    1.75    0.48 
   2  -4   5    1.91    0.56 
   2  -4   4    0.73    0.43 
   2  -4   4    0.18    0.65 
   2  -4   4    0.44    0.30 
   2  -4   4    0.66    0.24 
   2  -4   4    0.46    0.25 
   2  -4   4    0.83    0.22 
   2  -4   4    0.79    0.48 
   2  -4   4    0.48    0.35 
   2  -4   4    0.75    0.40 
   2  -4   4    0.93    0.59 
   2  -4   3    6.22    0.29 
   2  -4   3    5.25    0.65 
   2  -4   3    4.29    0.64 
   2  -4   3    4.01    0.57 
   2  -4   3    5.90    0.85 
   2  -4   3    4.63    0.41 
   2  -4   3    5.19    0.51 
   2  -4   3    5.95    0.56 
   2  -4   2    0.56    0.68 
   2  -4   2    1.22    0.21 
   2  -4   2    1.06    0.37 
   2  -4   2    0.63    0.48 
   2  -4   2    6.09    0.84 
   2  -4   2    5.42    0.77 
   2  -4   1   14.71    0.94 
   2  -4   1   16.28    1.20 
   2  -4   0    1.24    0.58 
   2  -4   0    1.77    0.58 
   2  -4  -1   10.55    0.85 
   2  -4  -1   13.50    1.05 
   2  -4  -1   21.37    0.88 
   2  -4  -1   19.12    0.75 
   2  -4  -1    8.11    0.70 
   2  -4  -1    9.49    0.73 
   2  -4  -1   10.89    0.88 
   2  -4  -1   17.34    1.24 
   2  -4  -1   17.17    1.20 
   2  -4  -1   18.06    1.47 
   2  -4  -2   16.70    0.75 
   2  -4  -2    8.39    0.90 
   2  -4  -2    8.06    0.87 
   2  -4  -2    9.61    0.96 
   2  -4  -2   13.01    1.11 
   2  -4  -2   14.55    1.23 
   2  -4  -2   15.19    1.21 
   2  -4  -2   18.35    1.57 
   2  -4  -3    5.43    1.04 
   2  -4  -3    3.84    0.97 
   2  -4  -3    2.80    0.97 
   2  -4  -3    3.04    0.86 
   2  -4  -3    3.59    0.46 
   2  -4  -3    4.58    0.89 
   2  -4  -3    4.33    0.61 
   2  -4  -3    3.14    0.84 
   2  -4  -3    4.03    0.64 
   2  -4  -3    4.93    1.36 
   2  -4  -4    0.15    0.96 
   2  -4  -4    0.54    0.86 
   2  -4  -4   -0.64    0.62 
   2  -4  -4    0.25    0.80 
   2  -4  -4    0.26    0.83 
   2  -4  -4   -0.12    0.52 
   2  -4  -4   -0.07    0.57 
   2  -4  -4    1.08    0.90 
   2  -4  -5    6.20    1.51 
   2  -4  -5    7.89    1.39 
   2  -4  -5   11.29    0.94 
   2  -4  -5   12.10    0.94 
   2  -4  -5    7.09    1.29 
   2  -4  -5   12.75    1.12 
   2  -4  -5    6.34    1.31 
   2  -4  -5    9.06    0.85 
   2  -4  -6   52.37    1.28 
   2  -4  -6   57.85    2.47 
   2  -4  -6   54.48    3.68 
   2  -4  -6   31.18    2.51 
   2  -4  -6   27.29    2.56 
   2  -4  -6   56.35    2.47 
   2  -4  -6   28.76    2.39 
   2  -4  -6   56.71    2.25 
   2  -4  -6   27.02    2.28 
   2  -4  -6   33.38    2.51 
   2  -4  -6   42.87    1.78 
   2  -4  -6   30.75    2.43 
   2  -4  -7   -0.05    1.28 
   2  -4  -7    1.29    1.46 
   2  -4  -7    0.92    1.52 
   2  -4  -7   -0.69    1.50 
   2  -4  -7    0.40    0.87 
   2  -4  -7    0.11    1.04 
   2  -4  -7   -0.04    1.02 
   2  -4  -7    0.16    0.69 
   2  -4  -7   -0.06    0.67 
   2  -4  -8    7.25    1.40 
   2  -4  -8    5.79    1.28 
   2  -4  -8    7.51    1.12 
   2  -4  -8    6.02    0.78 
   2  -4  -8    5.36    0.78 
   2  -4  -9    7.52    0.98 
   2  -4 -10    0.15    0.82 
   2  -4 -10   -0.03    0.89 
   2  -5  11   -0.03    0.20 
   2  -5  10    1.12    0.42 
   2  -5  10    1.47    0.23 
   2  -5  10    1.37    0.29 
   2  -5   9    1.96    0.17 
   2  -5   9    2.12    0.30 
   2  -5   9    1.73    0.20 
   2  -5   9    2.61    0.30 
   2  -5   9    2.41    0.43 
   2  -5   9    2.60    0.39 
   2  -5   8    1.69    0.91 
   2  -5   8    3.40    0.38 
   2  -5   8    3.86    0.36 
   2  -5   8    3.22    0.25 
   2  -5   8    3.34    0.57 
   2  -5   8    3.47    0.60 
   2  -5   8    2.98    0.50 
   2  -5   7    2.61    0.30 
   2  -5   7    2.99    0.35 
   2  -5   7    3.15    0.34 
   2  -5   7    3.04    0.62 
   2  -5   7    2.87    0.60 
   2  -5   7    2.86    0.52 
   2  -5   7    2.62    0.43 
   2  -5   7    3.28    0.58 
   2  -5   7    2.14    0.50 
   2  -5   6   -0.40    0.46 
   2  -5   6   -0.26    0.50 
   2  -5   6    0.19    0.51 
   2  -5   6    0.39    0.29 
   2  -5   6    0.27    0.29 
   2  -5   6    0.29    0.31 
   2  -5   6    0.16    0.55 
   2  -5   6    0.01    0.38 
   2  -5   6   -0.11    0.46 
   2  -5   6    0.07    0.47 
   2  -5   5    0.32    0.54 
   2  -5   5    0.36    0.26 
   2  -5   5    0.27    0.29 
   2  -5   5    0.50    0.31 
   2  -5   5    0.39    0.23 
   2  -5   5    0.08    0.32 
   2  -5   5    0.46    0.62 
   2  -5   5    0.27    0.34 
   2  -5   5    0.50    0.42 
   2  -5   5    0.37    0.46 
   2  -5   5    0.37    0.50 
   2  -5   5    0.20    0.58 
   2  -5   5    0.28    0.50 
   2  -5   4    5.54    0.80 
   2  -5   4    7.82    0.41 
   2  -5   4    7.82    0.36 
   2  -5   4    7.84    0.99 
   2  -5   4    7.85    0.92 
   2  -5   4    7.22    0.68 
   2  -5   4    7.07    0.76 
   2  -5   3   15.84    1.13 
   2  -5   3   22.99    0.56 
   2  -5   3   23.13    0.63 
   2  -5   3   20.64    1.33 
   2  -5   3   18.86    0.94 
   2  -5   3   20.91    0.98 
   2  -5   3   18.81    1.04 
   2  -5   3   14.01    0.99 
   2  -5   3   13.68    0.96 
   2  -5   3   20.09    1.26 
   2  -5   2   10.48    0.43 
   2  -5   2    9.56    0.71 
   2  -5   2    7.42    0.74 
   2  -5   2    6.23    0.92 
   2  -5   2    6.09    0.86 
   2  -5   2    7.85    0.91 
   2  -5   2   10.49    0.37 
   2  -5   1    0.72    0.23 
   2  -5   1    0.33    0.52 
   2  -5   1   17.13    1.38 
   2  -5   1   15.59    1.28 
   2  -5   1   -0.43    0.62 
   2  -5   1    0.66    0.44 
   2  -5   1    0.63    0.21 
   2  -5   0    0.94    0.46 
   2  -5   0    0.51    0.56 
   2  -5   0    0.65    0.60 
   2  -5   0    0.53    0.78 
   2  -5  -1   12.53    0.75 
   2  -5  -1   16.29    0.88 
   2  -5  -1    5.77    0.87 
   2  -5  -1    7.34    0.84 
   2  -5  -1   19.02    0.57 
   2  -5  -2    4.86    0.54 
   2  -5  -2    2.28    0.85 
   2  -5  -2    1.35    0.65 
   2  -5  -2    5.14    0.70 
   2  -5  -2    2.66    0.72 
   2  -5  -3    1.36    0.63 
   2  -5  -3    0.22    0.92 
   2  -5  -3   -0.27    0.76 
   2  -5  -3    0.84    0.61 
   2  -5  -3   -1.15    1.36 
   2  -5  -4    0.64    0.80 
   2  -5  -4    1.87    0.82 
   2  -5  -4    4.29    0.81 
   2  -5  -4    2.80    1.23 
   2  -5  -4    1.68    0.98 
   2  -5  -4    4.68    0.82 
   2  -5  -4    5.38    1.69 
   2  -5  -5    2.45    1.78 
   2  -5  -5   -0.75    1.10 
   2  -5  -5    0.61    0.55 
   2  -5  -5    0.07    0.71 
   2  -5  -5   -0.67    1.33 
   2  -5  -5   -0.58    1.05 
   2  -5  -5    0.12    0.47 
   2  -5  -5   -0.87    1.11 
   2  -5  -5    0.04    0.62 
   2  -5  -5   -0.76    0.96 
   2  -5  -5   -0.08    0.81 
   2  -5  -5   -1.12    0.94 
   2  -5  -6    3.11    1.08 
   2  -5  -6    1.39    1.17 
   2  -5  -6    4.02    1.12 
   2  -5  -6    2.71    0.55 
   2  -5  -7   -0.45    1.06 
   2  -5  -7   -0.68    1.10 
   2  -5  -7    0.08    0.70 
   2  -5  -7    0.26    0.69 
   2  -5  -7    0.21    0.93 
   2  -5  -8   -1.05    1.05 
   2  -5  -8   -0.80    1.03 
   2  -5  -8   -0.34    0.90 
   2  -5  -8    0.68    0.66 
   2  -5  -8    0.57    0.65 
   2  -5  -9    0.39    0.69 
   2  -5  -9    0.46    0.83 
   2  -6   9    0.06    0.24 
   2  -6   8    0.81    0.38 
   2  -6   8    1.06    0.16 
   2  -6   7    0.85    0.31 
   2  -6   7    0.97    0.40 
   2  -6   7    1.09    0.49 
   2  -6   7    1.07    0.22 
   2  -6   6    0.32    0.20 
   2  -6   6    0.33    0.27 
   2  -6   6    0.45    0.36 
   2  -6   6    0.19    0.40 
   2  -6   6    0.70    0.24 
   2  -6   6    0.04    0.20 
   2  -6   6    0.04    0.21 
   2  -6   5    0.42    0.25 
   2  -6   5    0.33    0.22 
   2  -6   5    0.85    0.31 
   2  -6   5    0.58    0.41 
   2  -6   5    0.32    0.41 
   2  -6   5    0.69    0.43 
   2  -6   5   -0.26    0.48 
   2  -6   4    1.26    0.28 
   2  -6   4    0.90    0.25 
   2  -6   4    0.43    0.49 
   2  -6   4    0.63    0.58 
   2  -6   4    0.16    0.50 
   2  -6   4    0.83    0.53 
   2  -6   3    3.64    0.60 
   2  -6   3    1.10    0.55 
   2  -6   3    1.43    0.51 
   2  -6   3    2.90    0.70 
   2  -6   3    3.85    0.30 
   2  -6   3    4.32    0.35 
   2  -6   3    1.32    0.42 
   2  -6   3    3.69    0.61 
   2  -6   3    2.54    0.63 
   2  -6   2    1.40    0.43 
   2  -6   2    4.76    0.35 
   2  -6   2    3.82    0.63 
   2  -6   2    2.93    0.63 
   2  -6   2    2.39    0.70 
   2  -6   2    3.46    0.75 
   2  -6   2    1.22    0.63 
   2  -6   2    3.63    0.31 
   2  -6   1    0.46    0.27 
   2  -6   1    1.24    0.54 
   2  -6   1    0.38    0.38 
   2  -6   1   -0.05    0.56 
   2  -6   1    1.86    0.79 
   2  -6   1    1.91    0.86 
   2  -6   1   -0.15    0.68 
   2  -6   0    8.42    1.01 
   2  -6   0    7.80    0.69 
   2  -6   0    9.84    0.76 
   2  -6   0   11.42    0.84 
   2  -6   0    7.22    1.05 
   2  -6   0    6.15    0.78 
   2  -6   0   43.40    2.22 
   2  -6   0   35.99    2.01 
   2  -6   0    6.37    0.90 
   2  -6   0   13.95    0.55 
   2  -6  -1    0.24    0.62 
   2  -6  -1   -0.32    0.69 
   2  -6  -1   41.45    2.29 
   2  -6  -1   36.39    2.18 
   2  -6  -1    0.27    0.34 
   2  -6  -1    0.92    0.33 
   2  -6  -1    0.84    0.33 
   2  -6  -1    0.25    0.41 
   2  -6  -1    0.32    0.47 
   2  -6  -1    0.26    0.56 
   2  -6  -1   -0.21    0.79 
   2  -6  -1    0.02    0.48 
   2  -6  -1    5.14    1.21 
   2  -6  -2    1.95    1.30 
   2  -6  -2    0.00    0.30 
   2  -6  -2   -0.03    0.32 
   2  -6  -2   -0.31    0.52 
   2  -6  -2   -0.13    0.57 
   2  -6  -2   -0.20    0.67 
   2  -6  -2   -0.15    0.61 
   2  -6  -2   -0.18    0.57 
   2  -6  -3    0.30    0.30 
   2  -6  -3    0.47    0.32 
   2  -6  -3   -0.02    0.64 
   2  -6  -3    0.39    0.82 
   2  -6  -3   -0.14    0.62 
   2  -6  -3    0.71    0.65 
   2  -6  -3    0.21    0.70 
   2  -6  -4    7.11    0.91 
   2  -6  -4    2.81    1.04 
   2  -6  -4    4.92    0.62 
   2  -6  -4    6.78    0.89 
   2  -6  -4    3.60    0.87 
   2  -6  -5    1.29    0.52 
   2  -6  -5    1.58    0.61 
   2  -6  -5    1.35    1.08 
   2  -6  -5    0.84    0.62 
   2  -6  -5    0.80    0.47 
   2  -6  -6    0.41    0.65 
   2  -6  -6   -0.06    0.63 
   2  -6  -7    1.64    0.83 
   2  -6  -7    0.58    0.62 
   2  -6  -7    0.46    0.60 
   2  -6  -8   -0.66    0.68 
   2  -7   8    0.57    0.23 
   2  -7   7   -0.04    0.15 
   2  -7   7    0.10    0.12 
   2  -7   6    0.33    0.21 
   2  -7   6   -0.05    0.19 
   2  -7   6    0.63    0.45 
   2  -7   6    0.28    0.16 
   2  -7   6    0.43    0.29 
   2  -7   5    0.36    0.19 
   2  -7   5    0.41    0.22 
   2  -7   5   -0.02    0.20 
   2  -7   5    0.03    0.21 
   2  -7   5    0.35    0.34 
   2  -7   4    0.19    0.29 
   2  -7   4    0.24    0.28 
   2  -7   4    2.70    0.29 
   2  -7   4    3.32    0.26 
   2  -7   4    2.26    0.62 
   2  -7   4    1.78    0.38 
   2  -7   4    2.23    0.40 
   2  -7   4    0.07    0.42 
   2  -7   3    3.32    0.32 
   2  -7   3    3.43    0.27 
   2  -7   3    2.48    0.49 
   2  -7   3    2.42    0.70 
   2  -7   3    3.30    0.56 
   2  -7   2   13.35    0.80 
   2  -7   2   28.33    0.72 
   2  -7   2   27.91    0.63 
   2  -7   2   20.56    1.32 
   2  -7   2   29.47    1.23 
   2  -7   2   22.83    1.10 
   2  -7   2   14.29    1.03 
   2  -7   1   20.60    1.10 
   2  -7   1   23.51    1.13 
   2  -7   1   17.94    1.23 
   2  -7   1   25.06    0.65 
   2  -7   1   28.11    0.73 
   2  -7   0    0.36    0.49 
   2  -7   0    0.10    0.71 
   2  -7   0    1.27    0.32 
   2  -7   0    0.04    0.33 
   2  -7  -1   -0.14    0.54 
   2  -7  -1   -0.43    0.48 
   2  -7  -1   -0.06    0.50 
   2  -7  -1   -0.25    0.65 
   2  -7  -1   -0.13    0.30 
   2  -7  -1    0.04    0.32 
   2  -7  -1    0.11    0.29 
   2  -7  -2   -0.32    0.56 
   2  -7  -2   -0.27    0.56 
   2  -7  -2    0.05    0.69 
   2  -7  -2   -0.01    0.43 
   2  -7  -2    0.12    0.28 
   2  -7  -2    0.21    0.30 
   2  -7  -3    6.85    0.82 
   2  -7  -3    7.48    0.93 
   2  -7  -3    7.96    0.94 
   2  -7  -3    6.66    0.84 
   2  -7  -3    5.35    0.58 
   2  -7  -4    0.06    0.43 
   2  -7  -4    0.37    0.44 
   2  -7  -4   -0.20    0.55 
   2  -7  -4    0.10    0.66 
   2  -7  -4   -0.47    1.87 
   2  -7  -4    0.23    0.67 
   2  -7  -4    0.51    0.52 
   2  -7  -5    5.52    0.52 
   2  -7  -5    6.59    0.55 
   2  -7  -5    5.79    0.72 
   2  -7  -5    9.45    1.04 
   2  -7  -5    9.24    1.03 
   2  -7  -6    2.24    0.40 
   2  -7  -6    3.26    0.57 
   2  -7  -6    3.25    0.55 
   2  -7  -7    0.42    0.51 
   2  -8   7    0.11    0.14 
   2  -8   6    0.54    0.43 
   2  -8   5    0.04    0.15 
   2  -8   5   -0.04    0.14 
   2  -8   5    0.00    0.15 
   2  -8   4    0.86    0.22 
   2  -8   4    0.62    0.15 
   2  -8   4    0.69    0.19 
   2  -8   4    0.04    0.19 
   2  -8   4    0.07    0.20 
   2  -8   3    1.40    0.39 
   2  -8   3    1.24    0.21 
   2  -8   3    0.78    0.24 
   2  -8   3    1.74    0.28 
   2  -8   2    6.90    0.37 
   2  -8   2    5.53    0.56 
   2  -8   2    4.66    0.51 
   2  -8   2    6.80    0.34 
   2  -8   2    0.55    0.32 
   2  -8   2    0.50    0.36 
   2  -8   2    5.25    0.52 
   2  -8   1    1.45    0.29 
   2  -8   1    1.05    0.42 
   2  -8   1    0.88    0.42 
   2  -8   1    1.40    0.26 
   2  -8   1    1.53    0.28 
   2  -8   1    0.12    0.32 
   2  -8   1    1.19    0.41 
   2  -8   0    0.93    0.40 
   2  -8   0    0.70    0.44 
   2  -8   0    0.68    0.27 
   2  -8   0    1.42    0.26 
   2  -8   0    1.46    0.28 
   2  -8  -1    0.52    0.35 
   2  -8  -1    0.78    0.31 
   2  -8  -1    0.54    0.25 
   2  -8  -1    0.73    0.26 
   2  -8  -2    0.53    0.45 
   2  -8  -2    0.93    0.23 
   2  -8  -2    1.20    0.26 
   2  -8  -2    1.08    0.45 
   2  -8  -2    0.45    0.35 
   2  -8  -3   -0.01    0.33 
   2  -8  -3    0.01    0.32 
   2  -8  -3   -0.35    0.42 
   2  -8  -4    0.53    0.33 
   2  -8  -4    0.87    0.33 
   2  -8  -5    0.25    0.34 
   2  -8  -5    0.27    0.33 
   2  -8  -5    0.34    0.27 
   2  -8  -5    0.04    0.43 
   2  -9   4    0.64    0.29 
   2  -9   2    0.05    0.15 
   2  -9   2    1.04    0.16 
   2  -9   1    1.76    0.19 
   2  -9   1    0.08    0.17 
   2  -9   0   -0.06    0.15 
   2  -9   0   -0.06    0.17 
   2  -9   0   -0.04    0.19 
   3   9   3    0.18    0.20 
   3   9   3    0.18    0.21 
   3   9   2    0.32    0.23 
   3   9   2    0.49    0.24 
   3   9   2   -0.30    0.30 
   3   9   2   -0.17    0.32 
   3   9   1   -0.43    0.25 
   3   9   1    0.03    0.34 
   3   9   1   -0.15    0.35 
   3   9   0   -0.27    0.22 
   3   9   0   -0.07    0.23 
   3   9   0   -0.17    0.22 
   3   9   0   -0.11    0.36 
   3   9   0   -0.09    0.37 
   3   9  -1    0.11    0.36 
   3   9  -1   -0.01    0.38 
   3   9  -2   -0.44    0.25 
   3   9  -2   -0.01    0.35 
   3   9  -2   -0.09    0.38 
   3   9  -3    0.21    0.58 
   3   9  -3   -0.08    0.32 
   3   9  -3   -0.18    0.35 
   3   9  -4    0.65    0.57 
   3   8   6    0.11    0.29 
   3   8   6    0.44    0.29 
   3   8   6    0.36    0.22 
   3   8   6    0.43    0.21 
   3   8   5    0.20    1.03 
   3   8   5    0.51    0.36 
   3   8   5    0.84    0.36 
   3   8   5    0.62    0.26 
   3   8   5    0.79    0.25 
   3   8   5    1.16    0.28 
   3   8   4    1.69    1.22 
   3   8   4    0.10    1.16 
   3   8   4    0.63    0.31 
   3   8   4    0.62    0.29 
   3   8   4    0.41    0.27 
   3   8   4    0.39    0.38 
   3   8   4    0.65    0.39 
   3   8   3    1.96    0.33 
   3   8   3    0.78    0.40 
   3   8   3    0.87    0.43 
   3   8   3    0.52    1.26 
   3   8   3    1.45    0.61 
   3   8   3    1.84    0.54 
   3   8   3    1.96    0.46 
   3   8   3    1.52    0.45 
   3   8   2    0.49    0.54 
   3   8   2    0.72    0.35 
   3   8   2    0.25    0.30 
   3   8   2    0.45    0.35 
   3   8   2   -0.01    0.43 
   3   8   2    0.12    0.47 
   3   8   2    1.09    1.23 
   3   8   2   -0.26    0.52 
   3   8   2   -0.79    0.56 
   3   8   2    0.27    0.43 
   3   8   2    0.34    0.42 
   3   8   1    0.22    0.57 
   3   8   1   -0.29    0.53 
   3   8   1   -0.52    0.57 
   3   8   1   -0.81    0.70 
   3   8   1   -0.04    0.35 
   3   8   1   -0.27    0.30 
   3   8   1   -0.07    0.30 
   3   8   1    0.08    0.35 
   3   8   1    0.09    0.30 
   3   8   1   -0.50    0.44 
   3   8   1   -0.27    0.44 
   3   8   0   -0.02    0.57 
   3   8   0   -0.05    0.55 
   3   8   0   -0.14    0.59 
   3   8   0    0.11    0.42 
   3   8   0   -0.37    0.42 
   3   8   0   -0.58    0.63 
   3   8   0   -0.09    0.31 
   3   8   0   -0.06    0.33 
   3   8   0   -0.28    0.34 
   3   8  -1    0.10    0.68 
   3   8  -1    0.03    0.58 
   3   8  -1   -0.38    0.31 
   3   8  -1    0.28    0.37 
   3   8  -1   -0.10    0.37 
   3   8  -2    0.87    0.73 
   3   8  -2    1.12    0.40 
   3   8  -2    1.15    0.41 
   3   8  -3    0.71    0.68 
   3   8  -3    0.99    0.39 
   3   8  -3    1.36    0.40 
   3   8  -4    0.03    0.35 
   3   8  -4    0.33    0.35 
   3   8  -5   -0.04    0.31 
   3   8  -5    0.02    0.31 
   3   7   8    0.79    0.28 
   3   7   8    0.83    0.29 
   3   7   8    0.53    0.73 
   3   7   7    2.60    0.29 
   3   7   7    2.56    0.99 
   3   7   7    2.39    0.40 
   3   7   7    2.50    0.40 
   3   7   7    2.30    0.30 
   3   7   6    1.34    1.14 
   3   7   6    0.53    0.54 
   3   7   6    1.04    0.30 
   3   7   6    1.03    0.31 
   3   7   5    4.12    0.42 
   3   7   5    4.11    0.42 
   3   7   5    3.41    0.78 
   3   7   5    4.03    0.44 
   3   7   5    2.65    0.66 
   3   7   4    2.52    0.59 
   3   7   4    1.99    0.57 
   3   7   4    2.68    0.45 
   3   7   4    2.29    0.43 
   3   7   4    3.02    0.41 
   3   7   4    0.71    0.39 
   3   7   4    1.35    0.44 
   3   7   4    0.80    1.29 
   3   7   4    2.25    0.82 
   3   7   4    1.59    0.69 
   3   7   3    2.78    0.50 
   3   7   3    3.20    0.49 
   3   7   3    2.74    0.45 
   3   7   3    2.61    0.63 
   3   7   3    2.88    0.62 
   3   7   3    2.30    0.86 
   3   7   3    3.05    0.69 
   3   7   3    4.20    1.38 
   3   7   3    0.34    1.36 
   3   7   3    0.75    0.48 
   3   7   3    1.55    0.54 
   3   7   2   -0.07    0.37 
   3   7   2   -0.36    0.69 
   3   7   2    0.24    0.40 
   3   7   2    0.02    0.30 
   3   7   2   -0.07    0.30 
   3   7   2   -0.10    0.56 
   3   7   2   -0.29    0.57 
   3   7   2    0.12    0.73 
   3   7   2    0.11    0.63 
   3   7   2    1.65    1.34 
   3   7   2    0.44    1.40 
   3   7   2   -0.13    0.54 
   3   7   2    0.23    0.58 
   3   7   1   -0.63    0.64 
   3   7   1    0.38    0.67 
   3   7   1    0.74    0.60 
   3   7   1   -0.15    0.57 
   3   7   1    0.06    0.81 
   3   7   1    0.34    0.38 
   3   7   1    1.04    0.46 
   3   7   1    0.87    0.39 
   3   7   1    2.75    1.42 
   3   7   1    0.31    1.48 
   3   7   1    0.71    0.81 
   3   7   1    0.76    0.81 
   3   7   1    1.06    0.41 
   3   7   1    0.42    0.75 
   3   7   1    0.05    0.59 
   3   7   0   -0.36    0.60 
   3   7   0    0.19    0.59 
   3   7   0    0.06    0.38 
   3   7   0   -0.06    0.78 
   3   7   0   -0.09    0.65 
   3   7   0   -0.67    0.92 
   3   7   0    0.12    0.48 
   3   7   0   -0.31    0.46 
   3   7   0    0.33    0.43 
   3   7   0    0.09    0.43 
   3   7   0   -0.35    0.49 
   3   7   0   -0.32    0.80 
   3   7   0   -0.13    0.79 
   3   7   0    0.60    1.41 
   3   7   0    0.59    1.60 
   3   7   0    0.26    0.80 
   3   7   0    0.34    0.83 
   3   7  -1    0.87    0.90 
   3   7  -1    0.40    0.84 
   3   7  -1    2.42    0.92 
   3   7  -1    0.78    0.95 
   3   7  -1    1.62    0.55 
   3   7  -1    0.78    0.50 
   3   7  -1    2.07    0.53 
   3   7  -1    3.00    0.56 
   3   7  -1    1.74    0.56 
   3   7  -1    0.52    0.63 
   3   7  -1    0.97    0.63 
   3   7  -1    2.39    0.81 
   3   7  -1    2.63    1.09 
   3   7  -1    2.24    0.79 
   3   7  -1    1.14    0.86 
   3   7  -1    2.64    0.48 
   3   7  -2    1.91    0.93 
   3   7  -2    0.25    0.89 
   3   7  -2    0.13    0.52 
   3   7  -2    0.47    0.50 
   3   7  -2    0.61    0.54 
   3   7  -2    0.48    0.55 
   3   7  -2    0.60    0.54 
   3   7  -2    1.05    0.54 
   3   7  -2    0.44    0.59 
   3   7  -2    0.42    0.59 
   3   7  -2    1.91    0.84 
   3   7  -2   -0.03    0.83 
   3   7  -2    1.13    1.06 
   3   7  -2    0.65    0.79 
   3   7  -2    1.29    0.56 
   3   7  -3    2.87    0.88 
   3   7  -3    0.60    0.54 
   3   7  -3    1.23    0.51 
   3   7  -3    2.24    0.60 
   3   7  -3    1.31    0.58 
   3   7  -3    2.89    0.61 
   3   7  -3    0.76    0.97 
   3   7  -3    2.33    0.63 
   3   7  -3    0.77    0.56 
   3   7  -3    0.67    0.57 
   3   7  -3    2.11    0.97 
   3   7  -3    2.90    0.97 
   3   7  -4    2.00    0.79 
   3   7  -4    0.81    0.48 
   3   7  -4    0.92    0.44 
   3   7  -4    1.77    0.60 
   3   7  -4    2.30    0.60 
   3   7  -4    0.91    0.51 
   3   7  -4   -0.07    0.80 
   3   7  -4    2.10    0.88 
   3   7  -4    1.05    0.92 
   3   7  -4    1.40    0.65 
   3   7  -5   -0.72    0.84 
   3   7  -5   -0.64    0.62 
   3   7  -5   -0.13    0.40 
   3   7  -5    0.07    0.51 
   3   7  -5    0.25    0.52 
   3   7  -5   -0.17    0.40 
   3   7  -6   -0.21    0.44 
   3   7  -6   -0.32    0.44 
   3   7  -6    0.19    1.05 
   3   7  -6    0.09    0.66 
   3   7  -6    0.09    0.60 
   3   7  -6   -0.32    0.54 
   3   7  -7    0.02    0.52 
   3   7  -7   -0.59    0.47 
   3   7  -7   -0.03    0.44 
   3   6   9    0.60    0.28 
   3   6   9    0.46    0.28 
   3   6   8    0.73    0.24 
   3   6   8    0.51    0.23 
   3   6   8    0.70    0.25 
   3   6   8    0.80    0.50 
   3   6   8    0.72    0.38 
   3   6   8    0.57    0.37 
   3   6   8    0.08    0.87 
   3   6   7    2.77    1.03 
   3   6   7    0.71    1.10 
   3   6   7    0.67    0.30 
   3   6   7    0.67    0.28 
   3   6   7    0.97    0.30 
   3   6   7    0.67    0.45 
   3   6   7    0.97    0.45 
   3   6   6    5.19    0.63 
   3   6   6    5.67    0.65 
   3   6   6    6.11    0.47 
   3   6   6    6.04    0.46 
   3   6   6    3.51    0.38 
   3   6   6    5.96    0.46 
   3   6   6    4.51    0.76 
   3   6   6    3.97    0.58 
   3   6   6    3.91    0.58 
   3   6   6    5.91    1.15 
   3   6   6    5.05    0.76 
   3   6   5   -0.23    0.35 
   3   6   5    0.28    0.53 
   3   6   5    0.73    0.54 
   3   6   5    0.01    0.34 
   3   6   5    0.01    0.33 
   3   6   5    0.33    0.36 
   3   6   5    0.38    0.57 
   3   6   5    0.30    0.39 
   3   6   5    0.03    0.39 
   3   6   5    0.16    0.58 
   3   6   4    4.67    0.55 
   3   6   4    4.18    0.52 
   3   6   4    2.30    0.42 
   3   6   4    2.92    0.72 
   3   6   4    4.09    0.56 
   3   6   4    3.63    1.05 
   3   6   4    2.42    0.79 
   3   6   4    3.14    0.83 
   3   6   3    4.39    0.99 
   3   6   3    1.01    0.49 
   3   6   3    2.22    0.55 
   3   6   3    4.25    0.83 
   3   6   3    3.70    1.14 
   3   6   3    5.00    0.80 
   3   6   3    1.79    0.85 
   3   6   3    2.47    0.77 
   3   6   2    1.44    0.57 
   3   6   2    0.97    0.59 
   3   6   2    2.23    0.72 
   3   6   2    2.23    0.70 
   3   6   2    1.79    0.94 
   3   6   2    2.19    0.37 
   3   6   2    2.06    0.54 
   3   6   2    2.34    0.37 
   3   6   2    2.42    0.74 
   3   6   2    0.72    1.00 
   3   6   2    3.36    0.87 
   3   6   2    1.01    0.83 
   3   6   2    3.30    0.50 
   3   6   2    0.20    0.77 
   3   6   2    0.45    0.55 
   3   6   1    4.26    0.53 
   3   6   1    3.07    0.61 
   3   6   1    3.39    0.46 
   3   6   1    1.99    0.57 
   3   6   1    3.15    0.47 
   3   6   1    0.41    1.36 
   3   6   1    2.53    0.89 
   3   6   1    2.90    0.94 
   3   6   1    1.37    0.81 
   3   6   1    2.41    1.13 
   3   6   1    3.10    0.97 
   3   6   1    2.27    0.76 
   3   6   1    1.69    0.73 
   3   6   0    8.91    0.95 
   3   6   0    4.05    0.85 
   3   6   0    3.23    0.83 
   3   6   0    9.39    0.69 
   3   6   0    8.77    0.66 
   3   6   0    3.70    0.68 
   3   6   0    7.61    0.64 
   3   6   0    8.24    0.66 
   3   6   0    8.69    1.47 
   3   6   0    0.43    1.52 
   3   6   0    4.75    1.08 
   3   6   0    5.18    1.14 
   3   6   0    3.94    1.00 
   3   6   0    4.87    0.95 
   3   6   0    2.88    1.29 
   3   6   0    9.83    1.43 
   3   6  -1   16.01    0.87 
   3   6  -1   15.34    0.78 
   3   6  -1   15.68    1.67 
   3   6  -1   10.58    1.15 
   3   6  -1   12.93    1.13 
   3   6  -1   10.12    0.75 
   3   6  -1    8.69    0.91 
   3   6  -1    7.35    1.56 
   3   6  -1    8.53    0.87 
   3   6  -1   13.00    0.81 
   3   6  -1   13.36    0.81 
   3   6  -1   10.47    1.37 
   3   6  -1    8.87    1.32 
   3   6  -1    9.72    1.35 
   3   6  -1    4.83    1.47 
   3   6  -1    2.66    1.90 
   3   6  -1   10.86    1.24 
   3   6  -2    0.85    1.03 
   3   6  -2    1.85    1.22 
   3   6  -2    0.67    1.11 
   3   6  -2    2.34    1.06 
   3   6  -2    2.05    0.78 
   3   6  -2    0.84    1.25 
   3   6  -2    2.38    0.73 
   3   6  -2    3.77    0.74 
   3   6  -2    4.61    0.76 
   3   6  -2    3.75    0.78 
   3   6  -2    2.04    1.13 
   3   6  -2    3.21    0.61 
   3   6  -2    4.95    0.74 
   3   6  -2    3.33    0.51 
   3   6  -2    2.07    1.31 
   3   6  -2    2.20    1.17 
   3   6  -3   29.76    2.32 
   3   6  -3   27.00    2.42 
   3   6  -3   23.80    2.28 
   3   6  -3   53.21    2.25 
   3   6  -3   41.66    1.95 
   3   6  -3   56.62    1.77 
   3   6  -3   19.09    2.20 
   3   6  -3   63.97    1.63 
   3   6  -3   69.33    1.68 
   3   6  -3   67.89    1.79 
   3   6  -3   95.60    2.18 
   3   6  -3    7.78    1.96 
   3   6  -3   44.11    2.55 
   3   6  -3   40.19    3.65 
   3   6  -4    1.24    1.03 
   3   6  -4    1.21    1.13 
   3   6  -4    0.77    1.12 
   3   6  -4    1.80    1.10 
   3   6  -4    3.33    0.72 
   3   6  -4   -0.73    1.16 
   3   6  -4    2.35    0.88 
   3   6  -4    1.07    1.22 
   3   6  -4    4.67    0.78 
   3   6  -4    4.21    0.77 
   3   6  -4   -0.19    1.26 
   3   6  -4    1.88    1.23 
   3   6  -4    2.75    1.51 
   3   6  -5    4.66    0.92 
   3   6  -5    0.90    1.09 
   3   6  -5    3.91    0.77 
   3   6  -5    5.13    0.77 
   3   6  -5    3.02    1.10 
   3   6  -5    7.67    0.86 
   3   6  -5    3.76    1.31 
   3   6  -5    2.86    1.16 
   3   6  -6   -0.15    0.91 
   3   6  -6   -0.18    0.99 
   3   6  -6    0.49    0.97 
   3   6  -6    1.56    0.79 
   3   6  -6    1.62    0.64 
   3   6  -6    1.65    0.64 
   3   6  -7    0.27    0.68 
   3   6  -7   -0.08    0.87 
   3   6  -7    1.24    1.22 
   3   6  -7    0.16    0.87 
   3   6  -7   -1.35    0.82 
   3   6  -8    0.01    0.65 
   3   6  -8    0.52    0.44 
   3   6  -8    0.55    0.44 
   3   6  -8    0.89    0.58 
   3   6  -8   -0.46    0.58 
   3   5   9    5.10    0.43 
   3   5   9    5.03    0.42 
   3   5   9    4.65    0.32 
   3   5   9    4.77    0.88 
   3   5   8    7.63    0.41 
   3   5   8    7.35    0.40 
   3   5   8    9.90    0.46 
   3   5   8    7.49    0.42 
   3   5   8    8.51    0.57 
   3   5   8    8.48    0.57 
   3   5   8    9.02    1.04 
   3   5   8    8.12    0.90 
   3   5   8    8.88    0.89 
   3   5   7    5.26    0.88 
   3   5   7    4.99    0.85 
   3   5   7    5.80    0.58 
   3   5   7    1.27    0.39 
   3   5   7    6.06    0.59 
   3   5   7    5.77    0.41 
   3   5   7    4.93    0.39 
   3   5   7    6.53    0.45 
   3   5   7    5.21    0.43 
   3   5   7    3.06    0.56 
   3   5   7    2.83    0.55 
   3   5   7    4.35    0.69 
   3   5   7    5.36    1.06 
   3   5   6    0.45    0.73 
   3   5   6    0.41    0.67 
   3   5   6    1.05    0.54 
   3   5   6   -0.20    0.41 
   3   5   6    1.13    0.52 
   3   5   6    0.68    0.55 
   3   5   6    0.32    0.31 
   3   5   6    0.19    0.35 
   3   5   6    0.48    0.37 
   3   5   6    0.66    0.32 
   3   5   6    0.85    0.59 
   3   5   6    0.13    0.41 
   3   5   6    0.20    0.42 
   3   5   6    0.46    0.35 
   3   5   6    0.36    0.96 
   3   5   5    1.33    0.86 
   3   5   5    0.99    0.76 
   3   5   5    1.59    0.58 
   3   5   5    1.09    0.58 
   3   5   5    0.98    0.62 
   3   5   5    1.05    0.58 
   3   5   5    1.57    0.37 
   3   5   5    1.10    0.41 
   3   5   5    0.62    0.41 
   3   5   5    1.39    0.38 
   3   5   5    1.39    0.67 
   3   5   5    0.95    0.43 
   3   5   5    1.10    0.44 
   3   5   5    1.15    0.40 
   3   5   5    2.09    0.95 
   3   5   4    0.32    0.78 
   3   5   4    0.42    0.58 
   3   5   4    0.96    0.58 
   3   5   4    0.65    0.71 
   3   5   4    0.26    0.58 
   3   5   4    0.62    0.36 
   3   5   4    0.28    0.42 
   3   5   4    1.02    0.39 
   3   5   4    0.70    0.66 
   3   5   4    0.41    0.37 
   3   5   4    0.44    0.37 
   3   5   4    0.27    0.40 
   3   5   4    0.89    0.61 
   3   5   4    1.13    0.92 
   3   5   3    3.49    0.99 
   3   5   3    4.37    0.58 
   3   5   3    7.98    0.81 
   3   5   3    3.20    0.50 
   3   5   3    7.41    0.79 
   3   5   3    5.14    0.86 
   3   5   3    1.88    0.54 
   3   5   3    5.25    0.65 
   3   5   3    8.52    0.66 
   3   5   3    8.22    0.65 
   3   5   3    7.35    1.03 
   3   5   3    4.60    1.12 
   3   5   3    9.01    0.88 
   3   5   3    6.46    1.08 
   3   5   3    5.25    0.88 
   3   5   2   19.71    1.48 
   3   5   2    7.32    1.13 
   3   5   2   21.35    0.93 
   3   5   2   20.65    0.88 
   3   5   2   15.75    1.68 
   3   5   2   18.90    1.38 
   3   5   2   13.88    1.14 
   3   5   2   14.69    1.33 
   3   5   2   18.70    0.73 
   3   5   2    7.92    1.09 
   3   5   2   24.25    0.90 
   3   5   2    2.12    0.69 
   3   5   1    3.45    0.42 
   3   5   1    3.73    0.46 
   3   5   1    1.59    0.96 
   3   5   1    2.03    0.55 
   3   5   1    2.61    0.41 
   3   5   1    2.07    0.42 
   3   5   1    2.01    0.55 
   3   5   1    2.78    0.62 
   3   5   1    1.27    0.63 
   3   5   1    0.92    1.06 
   3   5   1    2.96    0.95 
   3   5   1    2.40    0.81 
   3   5   1    2.25    0.87 
   3   5   1    2.13    0.77 
   3   5   0    0.08    0.35 
   3   5   0    0.12    0.33 
   3   5   0   -0.21    0.97 
   3   5   0    0.94    0.52 
   3   5   0    0.22    0.43 
   3   5   0    0.26    0.43 
   3   5   0    0.48    0.52 
   3   5   0   -0.15    0.72 
   3   5   0    0.51    0.64 
   3   5   0   -0.37    1.05 
   3   5   0   -2.04    1.29 
   3   5   0    0.33    0.77 
   3   5   0    0.10    0.69 
   3   5   0    0.99    0.81 
   3   5   0   -0.25    0.84 
   3   5  -1   -1.21    0.91 
   3   5  -1    0.90    0.44 
   3   5  -1    1.01    0.36 
   3   5  -1    1.29    0.51 
   3   5  -1    0.98    0.53 
   3   5  -1    0.64    0.55 
   3   5  -1   -0.18    0.81 
   3   5  -1    0.64    0.77 
   3   5  -1    0.44    0.77 
   3   5  -1   -0.13    0.98 
   3   5  -1    0.25    0.92 
   3   5  -1    0.16    0.94 
   3   5  -2   35.45    1.73 
   3   5  -2   35.10    1.65 
   3   5  -2   30.12    1.28 
   3   5  -2   46.19    1.35 
   3   5  -2   39.91    1.13 
   3   5  -2   27.38    2.01 
   3   5  -2   27.74    1.16 
   3   5  -2   29.88    1.20 
   3   5  -2   28.22    1.92 
   3   5  -2   28.34    2.02 
   3   5  -2   22.15    2.04 
   3   5  -2   27.40    1.98 
   3   5  -3    6.98    1.35 
   3   5  -3   74.39    4.12 
   3   5  -3    7.07    0.96 
   3   5  -3    2.13    1.35 
   3   5  -3   14.62    0.93 
   3   5  -3   14.86    0.94 
   3   5  -3    5.04    1.21 
   3   5  -3    7.96    0.79 
   3   5  -3   70.48    2.23 
   3   5  -3    5.18    1.20 
   3   5  -3    4.91    1.34 
   3   5  -3    4.78    1.28 
   3   5  -4   20.49    1.99 
   3   5  -4  119.93    5.05 
   3   5  -4   26.66    1.40 
   3   5  -4    1.83    1.49 
   3   5  -4   49.65    1.48 
   3   5  -4   51.38    1.51 
   3   5  -4   21.07    1.93 
   3   5  -4   33.34    1.42 
   3   5  -4  134.66    4.50 
   3   5  -4   18.92    1.88 
   3   5  -4   14.84    1.71 
   3   5  -4   19.15    1.87 
   3   5  -5    4.13    1.07 
   3   5  -5    4.06    0.83 
   3   5  -5   55.45    1.53 
   3   5  -5   52.65    1.53 
   3   5  -5    2.06    1.28 
   3   5  -5    2.47    0.81 
   3   5  -5    1.24    1.05 
   3   5  -5    0.99    1.18 
   3   5  -5    0.52    1.18 
   3   5  -5    3.02    1.38 
   3   5  -6    1.57    1.07 
   3   5  -6   -0.27    1.23 
   3   5  -6   74.23    1.66 
   3   5  -6   75.96    1.69 
   3   5  -6    2.33    0.82 
   3   5  -6    2.08    1.27 
   3   5  -6    2.53    1.33 
   3   5  -6    2.70    0.77 
   3   5  -7    1.07    0.99 
   3   5  -7    2.19    1.22 
   3   5  -7    0.17    1.08 
   3   5  -7    1.79    0.94 
   3   5  -7    1.62    1.17 
   3   5  -8   26.47    1.31 
   3   5  -8    1.62    0.84 
   3   5  -8    0.54    1.04 
   3   5  -8   29.20    1.45 
   3   5  -8    7.50    2.49 
   3   5  -8    0.90    1.06 
   3   5  -9   -0.70    0.54 
   3   5  -9    0.77    0.52 
   3   5  -9    1.33    0.65 
   3   4  10    1.40    0.71 
   3   4   9   -0.04    0.25 
   3   4   9   -0.44    0.32 
   3   4   9    0.15    0.67 
   3   4   9   -0.04    0.49 
   3   4   9   -0.29    0.35 
   3   4   9   -0.47    0.35 
   3   4   9   -0.17    0.35 
   3   4   8    0.28    0.41 
   3   4   8    0.44    0.41 
   3   4   8    0.19    0.40 
   3   4   8   -0.18    0.52 
   3   4   8    0.17    0.29 
   3   4   8    0.48    0.37 
   3   4   8    0.10    0.38 
   3   4   8    0.19    0.41 
   3   4   8    1.08    0.94 
   3   4   8   -0.32    0.78 
   3   4   8    0.18    0.58 
   3   4   7   21.81    1.44 
   3   4   7   19.95    1.36 
   3   4   7   11.70    0.69 
   3   4   7   22.48    0.84 
   3   4   7   22.28    0.84 
   3   4   7   21.65    0.64 
   3   4   7   20.75    0.62 
   3   4   7   23.69    0.73 
   3   4   7   10.25    0.71 
   3   4   7   19.16    1.21 
   3   4   7   14.79    0.98 
   3   4   7   14.15    0.95 
   3   4   7   19.62    1.15 
   3   4   7   19.70    1.13 
   3   4   7   12.20    1.13 
   3   4   6    0.11    0.72 
   3   4   6    0.45    0.78 
   3   4   6    0.64    0.49 
   3   4   6    0.10    0.46 
   3   4   6    0.36    0.48 
   3   4   6    0.04    0.63 
   3   4   6    0.34    0.51 
   3   4   6    0.50    0.29 
   3   4   6    0.15    0.33 
   3   4   6    0.40    0.41 
   3   4   6    0.49    0.29 
   3   4   6    0.26    0.47 
   3   4   6    0.50    0.63 
   3   4   6   -0.27    0.45 
   3   4   6   -0.16    0.43 
   3   4   6    0.40    0.35 
   3   4   6   -0.51    0.89 
   3   4   5    3.49    0.46 
   3   4   5    3.28    0.91 
   3   4   5    2.42    0.60 
   3   4   5    3.81    0.92 
   3   4   5    4.00    0.57 
   3   4   5    3.84    0.57 
   3   4   5    4.59    0.39 
   3   4   5    4.35    0.38 
   3   4   5    1.76    0.43 
   3   4   5    4.53    0.46 
   3   4   5    3.35    0.61 
   3   4   5    3.49    0.78 
   3   4   5    3.44    0.51 
   3   4   5    3.80    0.52 
   3   4   5    3.66    0.67 
   3   4   5    2.38    0.73 
   3   4   5    2.66    0.81 
   3   4   4    1.47    0.84 
   3   4   4    0.35    0.82 
   3   4   4    1.25    0.53 
   3   4   4    1.24    0.53 
   3   4   4    1.23    0.71 
   3   4   4    1.23    0.63 
   3   4   4    1.41    0.39 
   3   4   4    0.64    0.56 
   3   4   4    1.11    0.70 
   3   4   4    1.54    0.38 
   3   4   4    1.20    0.38 
   3   4   4    1.89    0.41 
   3   4   4    1.10    0.52 
   3   4   4    0.47    0.73 
   3   4   3    1.93    0.90 
   3   4   3    2.07    0.50 
   3   4   3    1.30    0.85 
   3   4   3    2.06    0.57 
   3   4   3    1.80    0.58 
   3   4   3    2.05    0.41 
   3   4   3    2.33    0.42 
   3   4   3    2.30    0.42 
   3   4   3    2.32    0.39 
   3   4   3    2.69    0.40 
   3   4   3    2.20    0.68 
   3   4   3    2.43    0.79 
   3   4   3    1.66    0.60 
   3   4   3    1.02    0.37 
   3   4   3    1.28    0.74 
   3   4   3    1.65    0.70 
   3   4   2    0.17    0.39 
   3   4   2    0.20    0.71 
   3   4   2    0.19    0.25 
   3   4   2    0.08    0.31 
   3   4   2    0.04    0.37 
   3   4   2    0.60    0.40 
   3   4   2    0.35    0.41 
   3   4   2   -0.01    0.40 
   3   4   2    0.18    0.24 
   3   4   2    0.34    0.24 
   3   4   2    0.02    0.50 
   3   4   2   -0.02    0.61 
   3   4   2   -0.02    0.51 
   3   4   2    0.33    0.69 
   3   4   2    0.44    0.44 
   3   4   2    0.35    0.57 
   3   4   1    6.81    0.67 
   3   4   1    5.72    1.22 
   3   4   1    6.77    0.66 
   3   4   1    7.46    0.64 
   3   4   1    7.02    0.47 
   3   4   1    6.82    0.47 
   3   4   1    9.12    1.25 
   3   4   1    4.00    0.67 
   3   4   1    9.92    0.97 
   3   4   1    5.25    1.13 
   3   4   1    9.32    0.97 
   3   4   1    8.41    0.49 
   3   4   1   11.08    0.58 
   3   4   1    5.24    1.06 
   3   4   0   44.22    2.10 
   3   4   0   49.15    1.22 
   3   4   0   55.52    1.29 
   3   4   0   48.06    2.40 
   3   4   0   48.10    1.20 
   3   4   0   50.75    1.24 
   3   4   0   38.93    1.45 
   3   4   0   64.34    2.92 
   3   4   0   46.15    1.80 
   3   4   0   52.09    2.04 
   3   4   0   46.33    2.22 
   3   4   0   51.83    2.05 
   3   4  -1   13.71    0.76 
   3   4  -1   13.14    0.77 
   3   4  -1   12.43    1.16 
   3   4  -1   13.54    1.33 
   3   4  -1   14.53    0.69 
   3   4  -1   15.34    0.65 
   3   4  -1   12.94    1.33 
   3   4  -1   12.05    1.19 
   3   4  -1    9.38    2.01 
   3   4  -1   11.03    1.59 
   3   4  -2   11.63    0.77 
   3   4  -2   12.32    0.78 
   3   4  -2   16.48    1.53 
   3   4  -2   23.29    0.76 
   3   4  -2   20.76    1.53 
   3   4  -2   14.78    0.95 
   3   4  -2   16.97    1.46 
   3   4  -2   20.33    1.50 
   3   4  -3   23.44    1.63 
   3   4  -3   29.91    1.82 
   3   4  -3   28.40    1.80 
   3   4  -3   23.08    1.85 
   3   4  -3   16.64    1.12 
   3   4  -3   21.33    1.71 
   3   4  -4   14.36    1.48 
   3   4  -4   16.11    1.59 
   3   4  -4   24.88    1.08 
   3   4  -4   15.26    1.56 
   3   4  -4   12.95    1.66 
   3   4  -4   23.67    1.16 
   3   4  -4   14.35    1.62 
   3   4  -4    5.44    1.00 
   3   4  -5    0.50    0.94 
   3   4  -5    0.48    1.07 
   3   4  -5    2.11    1.11 
   3   4  -5   -0.93    1.02 
   3   4  -5    0.62    0.76 
   3   4  -5    1.53    0.72 
   3   4  -5    0.24    1.22 
   3   4  -5   -0.28    1.14 
   3   4  -6    0.66    1.23 
   3   4  -6   -0.03    1.04 
   3   4  -6   -0.34    1.27 
   3   4  -6   -1.07    1.05 
   3   4  -6    0.95    0.72 
   3   4  -6    0.39    0.94 
   3   4  -6    0.18    1.01 
   3   4  -6    0.67    1.03 
   3   4  -6    1.30    1.08 
   3   4  -7   47.54    1.89 
   3   4  -7    1.10    1.33 
   3   4  -7    0.76    1.34 
   3   4  -7   53.27    4.81 
   3   4  -7    0.15    1.04 
   3   4  -8    0.81    1.15 
   3   4  -8    1.39    1.27 
   3   4  -8   -0.08    1.19 
   3   4  -9    0.14    1.00 
   3   4  -9  100.76    1.72 
   3   4  -9   98.37    1.73 
   3   4  -9    1.68    1.18 
   3   4  -9    0.30    1.11 
   3   4  -9    3.82    1.13 
   3   4 -10    1.12    0.68 
   3   3  10    1.28    0.30 
   3   3  10    0.81    0.77 
   3   3  10    1.46    0.34 
   3   3   9    0.02    0.53 
   3   3   9   -0.02    0.38 
   3   3   9    0.54    0.34 
   3   3   9    0.21    0.24 
   3   3   9    0.04    0.89 
   3   3   9    0.04    0.71 
   3   3   9    0.51    0.50 
   3   3   9   -0.23    0.41 
   3   3   8   59.28    1.27 
   3   3   8   54.80    1.25 
   3   3   8   54.94    1.25 
   3   3   8   45.81    1.08 
   3   3   8   47.59    1.08 
   3   3   8   57.81    1.16 
   3   3   8   64.94    1.23 
   3   3   8   34.01    1.57 
   3   3   8   35.47    1.56 
   3   3   8   36.33    1.55 
   3   3   8   58.37    1.98 
   3   3   8   53.89    1.90 
   3   3   8   41.14    1.64 
   3   3   7    0.96    0.44 
   3   3   7    1.03    0.46 
   3   3   7    0.88    0.54 
   3   3   7    1.08    0.42 
   3   3   7    1.08    0.42 
   3   3   7    0.50    0.48 
   3   3   7    0.43    0.31 
   3   3   7    0.23    0.32 
   3   3   7    1.42    0.41 
   3   3   7    1.01    0.30 
   3   3   7    0.98    0.70 
   3   3   7    0.76    0.45 
   3   3   7    0.90    0.68 
   3   3   7    0.95    0.52 
   3   3   6   33.80    1.35 
   3   3   6   34.68    1.62 
   3   3   6   26.49    1.02 
   3   3   6   35.39    0.99 
   3   3   6   33.47    0.99 
   3   3   6   34.09    0.81 
   3   3   6   33.79    0.80 
   3   3   6   35.25    0.88 
   3   3   6   34.66    1.39 
   3   3   6   29.42    1.24 
   3   3   6   28.51    1.22 
   3   3   6   35.54    1.57 
   3   3   6   29.11    1.20 
   3   3   6   33.03    1.27 
   3   3   6   21.98    1.23 
   3   3   5    8.92    0.60 
   3   3   5    8.91    0.61 
   3   3   5    9.15    0.60 
   3   3   5   10.52    0.43 
   3   3   5   10.55    0.43 
   3   3   5   10.23    0.49 
   3   3   5    6.51    0.85 
   3   3   5    9.29    1.01 
   3   3   5    7.99    0.85 
   3   3   5    9.27    0.65 
   3   3   5   11.12    0.78 
   3   3   5    9.32    0.97 
   3   3   5    8.45    0.66 
   3   3   5    8.28    0.66 
   3   3   4    5.29    0.56 
   3   3   4    5.11    0.55 
   3   3   4    3.78    0.67 
   3   3   4    6.74    0.50 
   3   3   4    4.86    0.87 
   3   3   4    6.20    0.43 
   3   3   4    5.54    0.93 
   3   3   4    5.45    0.74 
   3   3   4    5.82    0.55 
   3   3   4    5.12    0.54 
   3   3   4    4.99    0.57 
   3   3   4    6.42    0.51 
   3   3   3   70.54    1.61 
   3   3   3   73.31    1.62 
   3   3   3   64.50    2.03 
   3   3   3   50.50    1.55 
   3   3   3   49.69    1.54 
   3   3   3   60.90    1.38 
   3   3   3   60.01    1.36 
   3   3   3   63.53    1.40 
   3   3   3   60.40    1.95 
   3   3   3   55.91    2.10 
   3   3   3   54.86    1.65 
   3   3   3   67.53    2.42 
   3   3   2   31.29    1.88 
   3   3   2   29.04    1.37 
   3   3   2   29.40    0.99 
   3   3   2   29.73    0.99 
   3   3   2   32.53    1.00 
   3   3   2   28.19    1.36 
   3   3   2   39.81    1.06 
   3   3   2   32.41    1.58 
   3   3   2   38.67    1.02 
   3   3   2   39.84    1.02 
   3   3   2   33.41    1.17 
   3   3   2   32.39    1.16 
   3   3   1    1.06    0.59 
   3   3   1    1.35    0.63 
   3   3   1    1.41    0.91 
   3   3   1    0.62    0.32 
   3   3   1    1.26    0.88 
   3   3   1    0.76    0.24 
   3   3   1    0.64    0.24 
   3   3   0    2.29    0.47 
   3   3   0    3.17    0.50 
   3   3   0    2.72    1.15 
   3   3   0    2.88    0.38 
   3   3   0    1.94    0.62 
   3   3   0    3.38    0.86 
   3   3   0    3.00    0.86 
   3   3  -1  151.23    3.54 
   3   3  -1  176.14    2.78 
   3   3  -1  194.27    3.80 
   3   3  -1  158.26    3.47 
   3   3  -1  197.81    3.81 
   3   3  -2    6.82    1.61 
   3   3  -2    9.12    1.20 
   3   3  -2   11.89    1.16 
   3   3  -2   13.90    1.25 
   3   3  -2   10.35    1.25 
   3   3  -2   13.32    0.67 
   3   3  -2   15.28    0.59 
   3   3  -2   14.93    1.27 
   3   3  -3   15.77    1.49 
   3   3  -3   14.31    1.40 
   3   3  -3   21.67    1.37 
   3   3  -3   22.47    1.46 
   3   3  -3   25.69    0.92 
   3   3  -3   21.32    1.46 
   3   3  -3   25.62    1.76 
   3   3  -4    0.58    0.50 
   3   3  -4    0.33    0.77 
   3   3  -4   -0.86    0.96 
   3   3  -4   -0.45    0.96 
   3   3  -4   -0.05    0.81 
   3   3  -4    0.28    0.81 
   3   3  -4    0.05    0.82 
   3   3  -5    2.54    0.89 
   3   3  -5    0.52    1.00 
   3   3  -5   -0.54    1.04 
   3   3  -5    2.55    0.95 
   3   3  -5   -0.44    0.80 
   3   3  -5   -0.27    0.78 
   3   3  -5    0.66    1.06 
   3   3  -5    3.05    0.65 
   3   3  -5    2.59    1.14 
   3   3  -5    1.39    1.08 
   3   3  -6    1.28    0.87 
   3   3  -6    0.13    0.93 
   3   3  -6    0.54    0.97 
   3   3  -6    0.03    1.00 
   3   3  -6   -0.79    0.97 
   3   3  -6   -0.99    0.94 
   3   3  -6    0.64    0.87 
   3   3  -6    0.20    1.14 
   3   3  -6    1.26    0.74 
   3   3  -6    1.18    1.18 
   3   3  -6   -0.37    1.24 
   3   3  -7    0.89    0.86 
   3   3  -7    1.21    1.02 
   3   3  -7    1.03    0.97 
   3   3  -7    0.93    1.07 
   3   3  -7    0.62    1.33 
   3   3  -7    1.94    1.02 
   3   3  -7   -0.12    1.30 
   3   3  -7    2.21    0.80 
   3   3  -7    0.02    1.07 
   3   3  -7   -0.26    1.03 
   3   3  -8   -0.07    1.15 
   3   3  -8    0.16    1.14 
   3   3  -8    0.50    1.06 
   3   3  -8   -0.84    1.33 
   3   3  -8   -1.03    1.40 
   3   3  -8    0.73    1.12 
   3   3  -9   -0.67    1.26 
   3   3  -9    0.11    1.09 
   3   3  -9   -0.17    1.18 
   3   3  -9    0.02    1.17 
   3   3  -9    0.67    1.30 
   3   3 -10  148.74    2.23 
   3   3 -10  146.75    2.25 
   3   2  11    0.11    0.28 
   3   2  11    0.07    0.60 
   3   2  10   -0.68    0.82 
   3   2  10    0.19    0.39 
   3   2  10    0.21    0.62 
   3   2  10    0.38    0.37 
   3   2   9   17.51    0.83 
   3   2   9   12.75    0.82 
   3   2   9   11.80    0.80 
   3   2   9   13.21    0.90 
   3   2   9   14.02    0.90 
   3   2   9   21.40    0.62 
   3   2   9   20.53    0.61 
   3   2   9   17.72    0.54 
   3   2   9   22.53    0.75 
   3   2   9   21.04    1.36 
   3   2   9   16.99    1.01 
   3   2   9   16.89    1.00 
   3   2   9   18.92    1.17 
   3   2   9   13.98    0.95 
   3   2   8    4.38    0.63 
   3   2   8    4.81    0.76 
   3   2   8    4.31    0.67 
   3   2   8    5.50    0.55 
   3   2   8    3.71    0.43 
   3   2   8    3.83    0.42 
   3   2   8    4.86    0.33 
   3   2   8    3.93    0.64 
   3   2   8    5.00    0.84 
   3   2   8    5.38    0.72 
   3   2   8    4.50    0.71 
   3   2   8    6.11    0.95 
   3   2   7    1.71    0.56 
   3   2   7    1.39    0.46 
   3   2   7    1.21    0.46 
   3   2   7    1.74    0.59 
   3   2   7    1.50    0.61 
   3   2   7    1.56    0.37 
   3   2   7    1.41    0.36 
   3   2   7    2.35    0.38 
   3   2   7    1.90    0.37 
   3   2   7    1.85    0.28 
   3   2   7    0.92    0.48 
   3   2   7    1.28    0.75 
   3   2   7    2.08    0.62 
   3   2   7    2.25    0.61 
   3   2   7    2.22    0.83 
   3   2   6    0.86    0.33 
   3   2   6    1.10    0.35 
   3   2   6    0.92    0.34 
   3   2   6    0.65    0.42 
   3   2   6    0.53    0.73 
   3   2   6    0.83    0.37 
   3   2   6    0.90    0.25 
   3   2   6    0.51    0.59 
   3   2   6    0.68    0.59 
   3   2   6    0.77    0.40 
   3   2   6    0.54    0.39 
   3   2   6    0.13    0.60 
   3   2   6    0.66    0.55 
   3   2   6    0.83    0.55 
   3   2   6    1.15    0.73 
   3   2   5   24.37    0.78 
   3   2   5   24.20    0.77 
   3   2   5   24.65    1.02 
   3   2   5   25.07    0.97 
   3   2   5   27.26    0.69 
   3   2   5   27.24    0.73 
   3   2   5   29.29    1.38 
   3   2   5   21.52    1.23 
   3   2   5   25.97    1.28 
   3   2   5   25.42    1.21 
   3   2   5   25.22    1.26 
   3   2   5   24.68    0.91 
   3   2   5   24.23    1.04 
   3   2   5   26.08    1.06 
   3   2   4    1.35    0.39 
   3   2   4    1.18    0.38 
   3   2   4    2.13    0.41 
   3   2   4    1.49    0.42 
   3   2   4    1.77    0.28 
   3   2   4    1.63    0.23 
   3   2   4    1.43    0.23 
   3   2   4    1.32    0.62 
   3   2   4    1.95    0.71 
   3   2   4    1.70    0.62 
   3   2   4    2.08    0.63 
   3   2   4    2.29    0.41 
   3   2   4    1.85    0.40 
   3   2   4    1.88    0.37 
   3   2   3   13.74    0.68 
   3   2   3   13.11    0.66 
   3   2   3   12.62    0.95 
   3   2   3   12.80    1.00 
   3   2   3    7.63    0.64 
   3   2   3    8.17    0.65 
   3   2   3    9.30    0.45 
   3   2   3   10.33    0.49 
   3   2   3    8.18    0.76 
   3   2   3   11.27    0.59 
   3   2   3    7.04    0.58 
   3   2   3   10.73    1.01 
   3   2   3    9.09    1.04 
   3   2   3    9.56    0.46 
   3   2   2   80.85    2.65 
   3   2   2   75.06    1.69 
   3   2   2   70.58    1.66 
   3   2   2   86.45    2.14 
   3   2   2   97.46    1.88 
   3   2   2   70.47    2.32 
   3   2   2   87.78    1.74 
   3   2   2   98.08    1.92 
   3   2   2   98.25    1.91 
   3   2   2   85.60    2.45 
   3   2   1    7.36    0.44 
   3   2   1    7.88    0.45 
   3   2   1    6.20    0.94 
   3   2   1    3.20    0.94 
   3   2   1    4.80    0.61 
   3   2   1    6.57    0.91 
   3   2   1    4.34    0.61 
   3   2   1    8.63    0.49 
   3   2   0    6.71    0.38 
   3   2   0    6.56    0.38 
   3   2   0    4.76    0.80 
   3   2   0    8.52    0.48 
   3   2   0    7.69    0.78 
   3   2   0    4.95    0.53 
   3   2   0    7.85    0.78 
   3   2  -1   46.21    1.68 
   3   2  -1   45.07    1.10 
   3   2  -1   47.78    1.67 
   3   2  -2    0.40    0.64 
   3   2  -2   -0.47    0.72 
   3   2  -2   -0.13    0.72 
   3   2  -2    0.03    0.64 
   3   2  -2    1.19    0.79 
   3   2  -2   -0.22    1.93 
   3   2  -2   -0.15    0.30 
   3   2  -3   16.42    1.12 
   3   2  -3   19.14    1.17 
   3   2  -3   20.04    1.24 
   3   2  -3   19.69    1.28 
   3   2  -3   23.20    0.83 
   3   2  -3   20.90    1.44 
   3   2  -4   19.82    1.31 
   3   2  -4   17.80    1.29 
   3   2  -4   21.70    1.51 
   3   2  -4   18.23    1.22 
   3   2  -4   19.06    1.28 
   3   2  -5    6.24    0.88 
   3   2  -5    4.98    0.93 
   3   2  -5    6.18    0.70 
   3   2  -5    2.71    0.87 
   3   2  -5    3.53    0.80 
   3   2  -5    3.20    0.87 
   3   2  -5    2.48    0.98 
   3   2  -6   -0.02    0.91 
   3   2  -6   -0.13    0.94 
   3   2  -6    0.18    0.71 
   3   2  -6    0.59    0.92 
   3   2  -6   -0.34    1.06 
   3   2  -6   -0.33    0.85 
   3   2  -6   -0.35    0.70 
   3   2  -6   -0.12    0.82 
   3   2  -7    0.29    0.78 
   3   2  -7   -1.40    0.97 
   3   2  -7   -1.00    1.00 
   3   2  -7   -0.40    1.00 
   3   2  -7    0.89    1.24 
   3   2  -7   -0.38    1.24 
   3   2  -7    0.12    1.00 
   3   2  -7    0.39    1.08 
   3   2  -8   -0.12    1.23 
   3   2  -8   -0.48    1.23 
   3   2  -8   -0.24    1.43 
   3   2  -8   -0.14    1.19 
   3   2  -8   -0.50    1.40 
   3   2  -9    2.76    1.50 
   3   2  -9    2.74    1.53 
   3   2  -9    0.12    1.35 
   3   2  -9   -0.22    1.27 
   3   2 -10    0.06    1.27 
   3   2 -10   -0.02    1.27 
   3   1  11    0.22    0.62 
   3   1  11    0.51    0.36 
   3   1  11    0.51    0.24 
   3   1  10    1.07    0.29 
   3   1  10    1.08    0.31 
   3   1  10    1.14    0.32 
   3   1  10    1.98    0.70 
   3   1  10    1.49    0.48 
   3   1  10    1.33    0.47 
   3   1   9   20.42    1.15 
   3   1   9   28.64    0.78 
   3   1   9   27.75    0.76 
   3   1   9   27.81    0.75 
   3   1   9   18.29    1.05 
   3   1   9   18.85    1.05 
   3   1   9   21.18    1.12 
   3   1   9   25.04    1.01 
   3   1   9   31.35    1.64 
   3   1   9   24.39    1.26 
   3   1   8    2.07    0.58 
   3   1   8    4.03    0.43 
   3   1   8    2.89    0.41 
   3   1   8    1.91    0.43 
   3   1   8    3.10    0.62 
   3   1   8    2.25    0.50 
   3   1   8    2.42    0.52 
   3   1   8    3.15    0.88 
   3   1   8    2.31    0.67 
   3   1   8    2.75    0.62 
   3   1   8    2.32    0.64 
   3   1   7  180.10    4.07 
   3   1   7  218.66    3.36 
   3   1   7  213.58    3.34 
   3   1   7  136.57    3.31 
   3   1   7  209.35    4.08 
   3   1   7  161.21    3.76 
   3   1   7  194.12    4.09 
   3   1   7  184.66    4.02 
   3   1   7  231.06    4.42 
   3   1   7  214.83    4.20 
   3   1   7  186.78    3.90 
   3   1   6    6.28    0.83 
   3   1   6    6.90    0.77 
   3   1   6    5.63    0.62 
   3   1   6    6.40    0.49 
   3   1   6    5.46    0.65 
   3   1   6    6.24    0.84 
   3   1   6    7.14    0.42 
   3   1   6    5.99    0.29 
   3   1   6    4.48    0.48 
   3   1   6    4.26    0.50 
   3   1   6    5.83    0.63 
   3   1   6    5.61    0.62 
   3   1   6    6.83    0.75 
   3   1   6    5.49    0.69 
   3   1   5    5.90    0.69 
   3   1   5    7.54    0.39 
   3   1   5    6.82    0.30 
   3   1   5    6.43    0.64 
   3   1   5    6.79    0.79 
   3   1   5    6.67    0.77 
   3   1   5    6.21    0.74 
   3   1   5    6.63    0.65 
   3   1   5    6.27    0.51 
   3   1   5    7.44    0.63 
   3   1   5    6.02    0.52 
   3   1   5    6.89    0.61 
   3   1   4    6.46    0.73 
   3   1   4    5.26    0.28 
   3   1   4    6.05    0.37 
   3   1   4    4.91    0.40 
   3   1   4    6.15    0.60 
   3   1   4    5.59    0.78 
   3   1   4    5.86    0.74 
   3   1   4    4.29    0.63 
   3   1   4    5.64    0.48 
   3   1   4    6.44    0.58 
   3   1   4    6.16    0.57 
   3   1   4    4.78    0.47 
   3   1   3   27.38    0.69 
   3   1   3   31.64    1.30 
   3   1   3   27.80    0.88 
   3   1   3   33.32    1.10 
   3   1   3   32.35    1.07 
   3   1   3   30.48    1.26 
   3   1   3   27.07    1.28 
   3   1   3   23.42    0.88 
   3   1   3   31.30    1.07 
   3   1   3   27.15    1.31 
   3   1   2  170.32    3.43 
   3   1   2  181.96    3.37 
   3   1   2  173.90    3.59 
   3   1   2  159.72    3.82 
   3   1   2  188.18    3.42 
   3   1   2  188.26    3.40 
   3   1   2  178.93    3.16 
   3   1   2  179.00    3.93 
   3   1   2  162.54    3.24 
   3   1   1    0.25    0.33 
   3   1   1    0.48    0.34 
   3   1   1   -0.21    0.41 
   3   1   1    0.01    0.60 
   3   1   1   -0.08    0.39 
   3   1   1   -0.18    0.33 
   3   1   1    0.62    0.69 
   3   1   1   -0.37    0.32 
   3   1   0  157.05    3.02 
   3   1   0  155.97    3.02 
   3   1  -1    0.72    0.45 
   3   1  -1    0.84    0.59 
   3   1  -1    0.72    0.60 
   3   1  -2   60.24    1.29 
   3   1  -2   62.51    1.76 
   3   1  -2   64.12    1.77 
   3   1  -3  170.69    3.21 
   3   1  -3  173.88    3.51 
   3   1  -4   63.38    1.51 
   3   1  -4   47.94    1.65 
   3   1  -5   22.51    1.26 
   3   1  -5   19.53    1.36 
   3   1  -5   22.59    0.98 
   3   1  -6   -0.44    0.62 
   3   1  -6   -0.41    0.93 
   3   1  -6    0.09    0.91 
   3   1  -7    0.60    1.28 
   3   1  -7    3.14    0.90 
   3   1  -7    2.11    1.37 
   3   1  -7    2.92    1.00 
   3   1  -7    2.16    1.03 
   3   1  -7    5.55    1.33 
   3   1  -7    6.32    1.23 
   3   1  -8   23.23    1.91 
   3   1  -8    5.44    1.66 
   3   1  -8   19.72    1.96 
   3   1  -8    0.35    1.14 
   3   1  -8   11.02    1.51 
   3   1  -8   12.90    1.43 
   3   1  -8   12.03    1.53 
   3   1  -9    0.40    1.44 
   3   1  -9    1.53    1.55 
   3   1  -9    0.67    1.48 
   3   1  -9   -1.98    1.39 
   3   1 -10    4.01    1.54 
   3   1 -10    2.62    1.69 
   3   1 -10    1.57    1.58 
   3   1 -10    3.43    1.59 
   3   0  11   -0.21    0.37 
   3   0  11    0.29    0.23 
   3   0  11    0.06    0.29 
   3   0  11    0.04    0.60 
   3   0  11   -0.24    0.43 
   3   0  11    0.24    0.23 
   3   0  11    0.35    0.24 
   3   0  10   -0.50    0.78 
   3   0  10    0.06    0.56 
   3   0  10    0.39    0.70 
   3   0  10    0.12    0.47 
   3   0  10    0.28    0.37 
   3   0  10   -0.01    0.30 
   3   0  10    0.02    0.32 
   3   0  10    0.21    0.39 
   3   0  10   -0.15    0.33 
   3   0  10   -0.33    0.52 
   3   0  10    0.16    0.46 
   3   0   9   13.33    1.13 
   3   0   9    9.51    0.86 
   3   0   9   11.65    0.59 
   3   0   9   12.17    0.55 
   3   0   9   12.36    0.53 
   3   0   9   11.65    0.50 
   3   0   9    9.26    0.80 
   3   0   9    8.42    0.69 
   3   0   9    8.01    0.68 
   3   0   9   10.17    0.91 
   3   0   9    8.88    0.81 
   3   0   9    4.66    1.03 
   3   0   9    3.17    0.77 
   3   0   8    2.86    0.61 
   3   0   8    3.96    0.69 
   3   0   8    3.30    0.57 
   3   0   8    3.63    0.57 
   3   0   8    0.91    0.98 
   3   0   8    1.36    0.72 
   3   0   8    3.58    0.85 
   3   0   8    3.05    0.75 
   3   0   8    3.85    0.50 
   3   0   8    4.31    0.47 
   3   0   8    3.98    0.44 
   3   0   8    1.40    0.43 
   3   0   8    4.19    0.67 
   3   0   8    3.19    0.75 
   3   0   8    2.96    0.56 
   3   0   7  243.47    5.07 
   3   0   7  285.19    5.39 
   3   0   7  281.92    4.53 
   3   0   7  296.92    4.54 
   3   0   7  287.94    4.52 
   3   0   7  233.79    4.46 
   3   0   7  253.81    5.31 
   3   0   7  239.46    5.11 
   3   0   7  251.74    5.27 
   3   0   7  289.29    5.35 
   3   0   7  274.36    5.33 
   3   0   7  260.96    5.38 
   3   0   7  253.77    4.96 
   3   0   6   20.04    1.05 
   3   0   6   18.09    0.62 
   3   0   6   18.67    1.06 
   3   0   6   17.26    1.04 
   3   0   6   19.29    0.56 
   3   0   6   14.57    0.75 
   3   0   6   14.46    0.75 
   3   0   6   15.36    0.88 
   3   0   6   18.58    1.01 
   3   0   6   16.75    0.97 
   3   0   6   15.01    0.86 
   3   0   5    0.79    0.49 
   3   0   5    0.99    0.56 
   3   0   5    0.68    0.25 
   3   0   5    0.71    0.46 
   3   0   5    1.09    0.44 
   3   0   5    0.54    0.33 
   3   0   5    0.57    0.40 
   3   0   5    0.54    0.50 
   3   0   5    0.60    0.32 
   3   0   4  104.91    1.86 
   3   0   4  113.23    2.47 
   3   0   4  117.03    2.62 
   3   0   4  115.87    2.57 
   3   0   4  100.84    2.19 
   3   0   4  112.64    2.54 
   3   0   4  110.92    2.45 
   3   0   4  112.90    2.52 
   3   0   4  113.16    2.50 
   3   0   4  111.37    2.45 
   3   0   3  206.12    4.06 
   3   0   3  195.74    3.96 
   3   0   3  219.52    4.21 
   3   0   3  213.66    4.18 
   3   0   3  221.35    4.10 
   3   0   3  214.43    4.14 
   3   0   3  204.70    3.83 
   3   0   3  213.55    4.15 
   3   0   3  217.97    4.13 
   3   0   3  214.82    4.05 
   3   0   2   46.05    1.25 
   3   0   2   47.00    1.47 
   3   0   2   44.45    1.39 
   3   0   2   46.50    1.46 
   3   0   2   47.34    1.40 
   3   0   1  270.98    4.80 
   3   0   1  230.44    4.64 
   3   0   1  220.48    4.64 
   3   0   1  254.13    5.02 
   3   0   0  159.30    2.91 
   3   0   0  161.16    2.91 
   3   0  -2   24.48    0.86 
   3   0  -3   88.58    1.81 
   3   0  -3   92.11    1.83 
   3   0  -4   94.43    2.04 
   3   0  -4   97.96    2.36 
   3   0  -5    1.80    0.56 
   3   0  -5    3.55    0.79 
   3   0  -6    6.21    0.96 
   3   0  -6   15.37    1.26 
   3   0  -7   19.53    1.07 
   3   0  -7   21.25    1.85 
   3   0  -7   19.64    1.66 
   3   0  -8    0.77    0.82 
   3   0  -8   -0.06    1.54 
   3   0  -8    2.44    1.46 
   3   0  -9   40.71    2.68 
   3   0  -9    5.36    1.79 
   3   0 -10   -1.57    1.51 
   3   0 -10    0.10    1.50 
   3   0 -11    2.21    1.39 
   3  -1  12    0.07    0.17 
   3  -1  11    1.23    0.25 
   3  -1  11    1.56    0.26 
   3  -1  11    0.82    0.28 
   3  -1  11    1.76    0.39 
   3  -1  11    1.04    0.43 
   3  -1  10    5.44    0.77 
   3  -1  10    4.54    0.62 
   3  -1  10    4.60    0.40 
   3  -1  10    5.04    0.39 
   3  -1  10    4.82    0.38 
   3  -1  10    4.54    0.33 
   3  -1  10    4.43    0.57 
   3  -1  10    2.58    0.89 
   3  -1  10    2.58    0.64 
   3  -1  10    5.57    0.60 
   3  -1   9    0.06    0.98 
   3  -1   9   -0.25    0.72 
   3  -1   9    0.09    0.74 
   3  -1   9    0.26    0.40 
   3  -1   9    0.12    0.21 
   3  -1   9    0.15    0.19 
   3  -1   9    0.18    0.33 
   3  -1   9    0.07    0.32 
   3  -1   9   -0.33    0.54 
   3  -1   9    0.53    0.54 
   3  -1   9    0.52    0.33 
   3  -1   8    9.52    1.36 
   3  -1   8   11.28    1.10 
   3  -1   8   33.41    1.51 
   3  -1   8   28.96    0.81 
   3  -1   8   24.85    1.26 
   3  -1   8   27.19    1.34 
   3  -1   8   29.04    0.74 
   3  -1   8   25.49    1.22 
   3  -1   8   24.42    1.17 
   3  -1   8   23.78    1.14 
   3  -1   8   27.95    1.31 
   3  -1   8   30.46    1.21 
   3  -1   8   26.60    1.21 
   3  -1   7   10.40    0.55 
   3  -1   7   10.55    0.93 
   3  -1   7   10.82    0.99 
   3  -1   7   11.01    0.48 
   3  -1   7   11.13    0.96 
   3  -1   7    9.20    0.75 
   3  -1   7    9.49    0.82 
   3  -1   7    9.19    0.84 
   3  -1   7    9.66    0.82 
   3  -1   7    9.23    0.84 
   3  -1   7    9.89    0.96 
   3  -1   7   11.21    0.94 
   3  -1   6   88.69    2.18 
   3  -1   6   90.93    2.30 
   3  -1   6   88.04    1.62 
   3  -1   6   95.38    1.65 
   3  -1   6   90.46    1.63 
   3  -1   6   87.74    2.22 
   3  -1   6   91.04    2.49 
   3  -1   6   86.35    1.55 
   3  -1   6   82.01    2.15 
   3  -1   6   84.52    2.31 
   3  -1   6   88.43    2.34 
   3  -1   6   87.73    2.32 
   3  -1   6   84.18    2.17 
   3  -1   6   76.30    1.95 
   3  -1   5    2.17    0.54 
   3  -1   5    1.69    0.49 
   3  -1   5    2.25    0.62 
   3  -1   5    1.96    0.52 
   3  -1   5    2.11    0.26 
   3  -1   5    2.01    0.32 
   3  -1   5    1.94    0.54 
   3  -1   5    2.11    0.49 
   3  -1   5    2.08    0.48 
   3  -1   5    1.73    0.39 
   3  -1   4   24.43    0.94 
   3  -1   4   25.99    1.02 
   3  -1   4   27.98    1.24 
   3  -1   4   26.26    1.03 
   3  -1   4   22.74    0.55 
   3  -1   4   23.12    0.61 
   3  -1   4   20.75    0.78 
   3  -1   4   26.00    0.99 
   3  -1   4   22.51    0.86 
   3  -1   4   24.50    1.07 
   3  -1   4   25.54    1.15 
   3  -1   3  123.83    2.81 
   3  -1   3  122.03    2.48 
   3  -1   3  104.44    1.88 
   3  -1   3  115.59    2.33 
   3  -1   3  118.55    2.50 
   3  -1   3  117.06    2.61 
   3  -1   3  122.45    2.72 
   3  -1   3  121.05    2.45 
   3  -1   3  119.68    2.39 
   3  -1   3  105.35    2.17 
   3  -1   2  172.13    3.04 
   3  -1   2  193.62    3.71 
   3  -1   2  154.02    3.21 
   3  -1   2  174.03    3.61 
   3  -1   2  181.42    3.35 
   3  -1   2  174.46    3.28 
   3  -1   2  163.97    3.39 
   3  -1   1  413.61    7.49 
   3  -1   1  442.92    7.50 
   3  -1   1  436.83    7.12 
   3  -1   1  460.17    7.41 
   3  -1   1  453.40    7.44 
   3  -1   1  408.82    7.79 
   3  -1   0   13.35    0.55 
   3  -1  -1   26.62    0.88 
   3  -1  -2   15.04    0.49 
   3  -1  -3    9.27    0.59 
   3  -1  -3    5.69    0.39 
   3  -1  -4   39.71    1.39 
   3  -1  -4   49.79    1.41 
   3  -1  -5    4.96    0.81 
   3  -1  -5    6.55    0.76 
   3  -1  -5    3.72    1.05 
   3  -1  -5    6.26    0.66 
   3  -1  -5    6.12    0.73 
   3  -1  -6    1.13    1.16 
   3  -1  -6   -0.36    1.11 
   3  -1  -7    6.32    1.65 
   3  -1  -7    5.52    0.96 
   3  -1  -7    0.46    1.32 
   3  -1  -7   -0.29    1.39 
   3  -1  -8   10.53    1.10 
   3  -1  -8    9.32    1.05 
   3  -1  -8    9.19    1.74 
   3  -1  -9    0.03    0.89 
   3  -1  -9   -0.39    0.96 
   3  -1  -9   -0.67    1.42 
   3  -2  11    0.05    0.31 
   3  -2  11    0.09    0.53 
   3  -2  11    0.09    0.39 
   3  -2  11   -0.10    0.22 
   3  -2  10    4.19    0.29 
   3  -2  10    3.78    0.54 
   3  -2  10    4.67    0.56 
   3  -2  10    3.42    0.35 
   3  -2   9    1.77    1.03 
   3  -2   9    0.33    0.76 
   3  -2   9    3.49    0.61 
   3  -2   9    2.99    0.40 
   3  -2   9    3.14    0.37 
   3  -2   9    3.35    0.36 
   3  -2   9    0.15    0.27 
   3  -2   9    2.91    0.32 
   3  -2   9    2.51    0.24 
   3  -2   9    3.42    0.61 
   3  -2   9    3.51    0.64 
   3  -2   9    3.19    0.57 
   3  -2   9    3.06    0.58 
   3  -2   8    5.26    0.77 
   3  -2   8    6.17    0.48 
   3  -2   8    5.31    0.71 
   3  -2   8    6.63    0.49 
   3  -2   8    6.62    0.48 
   3  -2   8    5.63    0.33 
   3  -2   8    6.00    0.40 
   3  -2   8    5.22    0.63 
   3  -2   8    5.21    0.61 
   3  -2   8    5.12    0.60 
   3  -2   8    5.13    0.66 
   3  -2   8    5.25    0.72 
   3  -2   7   19.66    1.10 
   3  -2   7   17.93    0.64 
   3  -2   7   18.39    1.05 
   3  -2   7   22.39    0.68 
   3  -2   7   22.13    0.67 
   3  -2   7   18.94    0.58 
   3  -2   7   20.05    1.07 
   3  -2   7   19.19    1.07 
   3  -2   7   18.41    1.05 
   3  -2   7   18.52    1.13 
   3  -2   7   16.62    0.97 
   3  -2   6    1.75    0.63 
   3  -2   6    2.12    0.54 
   3  -2   6    2.47    0.59 
   3  -2   6    2.62    0.56 
   3  -2   6    2.85    0.60 
   3  -2   6    2.19    0.35 
   3  -2   6    2.76    0.35 
   3  -2   6    2.83    0.34 
   3  -2   6    2.17    0.29 
   3  -2   6    2.24    0.63 
   3  -2   6    2.50    0.55 
   3  -2   6    2.21    0.50 
   3  -2   5    0.62    0.47 
   3  -2   5    0.58    0.44 
   3  -2   5    0.71    0.54 
   3  -2   5    0.14    0.43 
   3  -2   5    0.25    0.45 
   3  -2   5    0.46    0.28 
   3  -2   5    0.95    0.27 
   3  -2   5    0.83    0.28 
   3  -2   5    0.54    0.60 
   3  -2   5    0.54    0.43 
   3  -2   5    0.31    0.22 
   3  -2   5    0.28    0.36 
   3  -2   5    0.20    0.54 
   3  -2   5    0.67    0.41 
   3  -2   4   15.69    0.81 
   3  -2   4   14.81    0.75 
   3  -2   4   17.31    1.09 
   3  -2   4   16.98    1.02 
   3  -2   4   17.41    1.06 
   3  -2   4   16.79    0.97 
   3  -2   4   15.83    0.94 
   3  -2   4   13.93    0.45 
   3  -2   4   15.65    0.84 
   3  -2   4   14.85    0.74 
   3  -2   4   14.71    0.75 
   3  -2   3   11.58    0.95 
   3  -2   3   12.60    0.97 
   3  -2   3    9.96    0.65 
   3  -2   3   11.19    0.65 
   3  -2   3   11.89    0.95 
   3  -2   3   11.78    0.70 
   3  -2   3   10.44    0.65 
   3  -2   2   28.56    1.34 
   3  -2   2   25.53    0.92 
   3  -2   2   27.48    1.02 
   3  -2   2   31.27    0.95 
   3  -2   2   31.52    1.34 
   3  -2   2   29.78    0.96 
   3  -2   1    0.17    0.37 
   3  -2   1    0.02    0.61 
   3  -2   1   -0.24    0.39 
   3  -2   1    0.06    0.39 
   3  -2   0   37.04    1.16 
   3  -2   0   52.07    1.53 
   3  -2   0   52.34    1.54 
   3  -2   0   37.15    1.11 
   3  -2   0   32.31    1.01 
   3  -2   0   42.74    1.08 
   3  -2  -1    0.21    0.45 
   3  -2  -1    0.01    0.43 
   3  -2  -1    0.22    0.40 
   3  -2  -2   25.17    1.11 
   3  -2  -2   16.30    0.99 
   3  -2  -3   20.15    0.76 
   3  -2  -3   19.44    1.19 
   3  -2  -4    3.42    0.89 
   3  -2  -4    5.40    0.97 
   3  -2  -4    4.80    0.91 
   3  -2  -5    0.96    0.93 
   3  -2  -5    1.35    1.00 
   3  -2  -5    2.96    0.69 
   3  -2  -5    1.49    0.94 
   3  -2  -6    9.04    1.09 
   3  -2  -6    5.68    1.40 
   3  -2  -6   10.19    0.99 
   3  -2  -6    1.83    1.26 
   3  -2  -6    2.54    1.29 
   3  -2  -6    9.41    1.09 
   3  -2  -7   43.38    2.04 
   3  -2  -7   46.45    2.05 
   3  -2  -7   20.36    2.31 
   3  -2  -7    4.46    1.77 
   3  -2  -7    3.34    1.62 
   3  -2  -8   -1.35    1.69 
   3  -2  -9    2.28    0.97 
   3  -2  -9    1.27    1.02 
   3  -2  -9    1.47    1.40 
   3  -2 -10    0.85    0.84 
   3  -3  11    0.78    0.26 
   3  -3  11    0.01    0.43 
   3  -3  11    0.05    0.29 
   3  -3  10    0.01    0.24 
   3  -3  10   -0.18    0.70 
   3  -3  10    0.16    0.49 
   3  -3  10    0.05    0.23 
   3  -3  10    0.11    0.25 
   3  -3   9    6.96    0.68 
   3  -3   9    5.87    0.38 
   3  -3   9    7.40    0.41 
   3  -3   9    7.85    0.41 
   3  -3   9    0.28    0.32 
   3  -3   9    6.07    0.28 
   3  -3   9    0.40    1.07 
   3  -3   9    3.39    0.78 
   3  -3   9    7.79    0.72 
   3  -3   8   11.01    0.51 
   3  -3   8   13.87    0.53 
   3  -3   8   13.77    0.52 
   3  -3   8   13.14    0.41 
   3  -3   8   12.86    0.92 
   3  -3   8    9.55    0.63 
   3  -3   8   11.96    0.85 
   3  -3   8   12.20    0.93 
   3  -3   8   12.90    0.89 
   3  -3   7    7.51    1.15 
   3  -3   7   13.09    0.94 
   3  -3   7   12.04    0.52 
   3  -3   7   16.10    0.58 
   3  -3   7   15.38    0.56 
   3  -3   7   14.31    0.47 
   3  -3   7   13.43    0.96 
   3  -3   7   12.93    1.01 
   3  -3   7   13.43    0.97 
   3  -3   7   11.82    0.87 
   3  -3   7   12.04    0.86 
   3  -3   7   11.22    0.78 
   3  -3   7   14.24    1.06 
   3  -3   6   15.57    0.53 
   3  -3   6   15.49    0.52 
   3  -3   6   15.39    0.96 
   3  -3   6   14.06    1.04 
   3  -3   6   12.15    0.92 
   3  -3   6   12.72    1.05 
   3  -3   6   11.79    0.90 
   3  -3   6   12.74    0.84 
   3  -3   6   11.28    0.74 
   3  -3   6   12.95    0.89 
   3  -3   5    0.33    0.28 
   3  -3   5    0.46    0.29 
   3  -3   5    0.04    0.47 
   3  -3   5    0.12    0.43 
   3  -3   5    0.32    0.59 
   3  -3   5    0.25    0.46 
   3  -3   5   -0.20    0.44 
   3  -3   5    0.53    0.60 
   3  -3   5    0.16    0.36 
   3  -3   5    0.30    0.46 
   3  -3   4    0.50    0.24 
   3  -3   4    0.54    0.25 
   3  -3   4    0.42    0.44 
   3  -3   4    0.04    0.63 
   3  -3   4    0.53    0.43 
   3  -3   4   -0.02    0.58 
   3  -3   4    0.18    0.34 
   3  -3   4    0.28    0.41 
   3  -3   3   35.57    0.77 
   3  -3   3   36.08    0.77 
   3  -3   3   35.80    1.20 
   3  -3   3   34.32    1.52 
   3  -3   3   34.46    1.19 
   3  -3   3   36.97    1.56 
   3  -3   3   35.53    1.13 
   3  -3   3   34.16    1.04 
   3  -3   2   75.95    2.14 
   3  -3   2   78.20    1.60 
   3  -3   2    9.96    1.05 
   3  -3   2    8.74    1.01 
   3  -3   2   80.98    2.14 
   3  -3   2   93.06    1.53 
   3  -3   2   97.20    1.66 
   3  -3   1   22.27    0.96 
   3  -3   1   22.40    1.26 
   3  -3   1   20.25    1.28 
   3  -3   0    0.22    0.41 
   3  -3   0    0.82    0.68 
   3  -3   0    0.18    0.61 
   3  -3  -1    0.88    0.46 
   3  -3  -1    1.77    0.73 
   3  -3  -1    1.96    0.71 
   3  -3  -1    0.56    0.52 
   3  -3  -1    0.95    0.47 
   3  -3  -2   12.03    1.20 
   3  -3  -2    8.24    1.14 
   3  -3  -2   25.17    1.44 
   3  -3  -2   23.37    1.40 
   3  -3  -2   13.84    1.05 
   3  -3  -2   22.01    1.08 
   3  -3  -3    1.91    0.89 
   3  -3  -3    3.77    0.93 
   3  -3  -3    5.37    0.88 
   3  -3  -3   10.75    0.80 
   3  -3  -3    8.42    0.91 
   3  -3  -4    0.03    0.87 
   3  -3  -4    1.21    0.84 
   3  -3  -4    2.02    0.43 
   3  -3  -4    3.12    0.63 
   3  -3  -4    1.28    0.84 
   3  -3  -4    1.93    0.82 
   3  -3  -5    2.93    1.18 
   3  -3  -5    4.75    1.19 
   3  -3  -5    2.35    1.15 
   3  -3  -6   -0.99    1.38 
   3  -3  -6    1.33    1.23 
   3  -3  -6   -0.12    1.20 
   3  -3  -6   -1.54    1.30 
   3  -3  -6    0.90    0.77 
   3  -3  -6    1.01    0.94 
   3  -3  -6    0.83    0.91 
   3  -3  -7    0.53    1.47 
   3  -3  -7    1.19    1.43 
   3  -3  -7    3.62    1.07 
   3  -3  -7    2.94    1.07 
   3  -3  -8    0.76    1.59 
   3  -3  -9    0.03    0.88 
   3  -3  -9    0.90    1.00 
   3  -4  10   -0.17    0.20 
   3  -4  10   -0.16    0.20 
   3  -4  10    0.27    0.59 
   3  -4  10    0.64    0.40 
   3  -4   9    1.19    0.40 
   3  -4   9    0.15    0.19 
   3  -4   9    0.84    0.26 
   3  -4   9    1.01    0.28 
   3  -4   9    0.67    0.16 
   3  -4   8    1.26    0.46 
   3  -4   8   -0.03    0.25 
   3  -4   8    1.11    0.29 
   3  -4   8    1.32    0.31 
   3  -4   8    1.32    0.22 
   3  -4   8    0.79    0.33 
   3  -4   8    1.46    0.50 
   3  -4   8    1.32    0.46 
   3  -4   8    0.65    0.82 
   3  -4   7    7.02    0.44 
   3  -4   7    7.71    0.43 
   3  -4   7    5.93    0.70 
   3  -4   7    5.97    0.57 
   3  -4   7    6.30    0.72 
   3  -4   7    6.12    0.77 
   3  -4   7    6.96    0.71 
   3  -4   7    6.33    0.64 
   3  -4   6    3.25    0.70 
   3  -4   6    3.80    0.35 
   3  -4   6    3.98    0.34 
   3  -4   6    3.43    0.62 
   3  -4   6    3.09    0.54 
   3  -4   6    3.99    0.74 
   3  -4   6    3.15    0.55 
   3  -4   6    3.51    0.54 
   3  -4   6    3.31    0.72 
   3  -4   6    3.97    0.58 
   3  -4   5    1.61    0.70 
   3  -4   5    1.86    0.31 
   3  -4   5    2.10    0.32 
   3  -4   5    2.57    0.29 
   3  -4   5    2.35    0.56 
   3  -4   5    2.07    0.53 
   3  -4   5    2.12    0.75 
   3  -4   5    1.82    0.52 
   3  -4   5    1.65    0.50 
   3  -4   5    1.58    0.71 
   3  -4   5    1.98    0.51 
   3  -4   4    1.61    0.73 
   3  -4   4    2.15    0.30 
   3  -4   4    1.99    0.27 
   3  -4   4    1.92    0.50 
   3  -4   4    1.65    0.70 
   3  -4   4    1.94    0.75 
   3  -4   4    1.44    0.46 
   3  -4   4    1.64    0.51 
   3  -4   3    6.18    0.89 
   3  -4   3    7.05    0.66 
   3  -4   3    5.05    0.83 
   3  -4   3    7.15    0.63 
   3  -4   3    7.64    0.35 
   3  -4   2    5.07    0.29 
   3  -4   2    3.66    0.81 
   3  -4   2    3.50    0.54 
   3  -4   2    4.56    0.62 
   3  -4   2    3.12    0.75 
   3  -4   1    1.97    0.24 
   3  -4   1    0.86    0.68 
   3  -4   1    0.81    0.44 
   3  -4   1    1.38    0.64 
   3  -4   0    0.17    0.45 
   3  -4  -1   12.05    1.43 
   3  -4  -1   10.36    0.81 
   3  -4  -1   10.06    1.18 
   3  -4  -1   11.64    1.19 
   3  -4  -2    0.41    0.65 
   3  -4  -2    0.03    0.55 
   3  -4  -2    0.79    0.85 
   3  -4  -2    1.36    0.82 
   3  -4  -3    0.78    0.81 
   3  -4  -3    0.68    0.72 
   3  -4  -3    0.11    0.48 
   3  -4  -3    0.61    0.52 
   3  -4  -3    1.01    0.93 
   3  -4  -3    1.25    0.87 
   3  -4  -4    0.13    0.95 
   3  -4  -4    1.26    0.89 
   3  -4  -4    2.10    0.61 
   3  -4  -4    1.10    0.83 
   3  -4  -4    0.97    0.84 
   3  -4  -4    2.24    0.71 
   3  -4  -4    1.53    0.48 
   3  -4  -4    3.02    1.14 
   3  -4  -4    2.12    1.03 
   3  -4  -4    1.68    0.61 
   3  -4  -5    7.56    1.46 
   3  -4  -5    5.61    1.36 
   3  -4  -5    5.57    1.18 
   3  -4  -5   10.21    1.10 
   3  -4  -5    5.48    1.22 
   3  -4  -5    1.88    1.28 
   3  -4  -5    4.63    1.27 
   3  -4  -6    0.40    1.26 
   3  -4  -6    0.04    1.14 
   3  -4  -6    1.17    0.95 
   3  -4  -6    0.55    0.90 
   3  -4  -7    0.34    1.28 
   3  -4  -7    0.37    0.91 
   3  -4  -7    0.24    0.96 
   3  -4  -8   -0.01    0.80 
   3  -4  -9    0.71    0.78 
   3  -4  -9    0.70    0.87 
   3  -5  10    0.07    0.16 
   3  -5  10   -0.01    0.34 
   3  -5  10    0.11    0.21 
   3  -5   9    0.35    0.47 
   3  -5   9   -0.05    0.20 
   3  -5   9   -0.03    0.14 
   3  -5   8    0.91    0.18 
   3  -5   8    1.16    0.39 
   3  -5   8    1.18    0.23 
   3  -5   8    1.25    0.27 
   3  -5   7    5.03    0.35 
   3  -5   7    5.59    0.34 
   3  -5   7    5.07    0.56 
   3  -5   7    5.29    0.33 
   3  -5   7    5.61    0.59 
   3  -5   7    4.39    0.48 
   3  -5   6    0.36    0.22 
   3  -5   6   -0.23    0.38 
   3  -5   6    0.64    0.46 
   3  -5   6    0.29    0.50 
   3  -5   6   -0.02    0.49 
   3  -5   6    0.30    0.25 
   3  -5   5    0.36    0.27 
   3  -5   5    0.55    0.23 
   3  -5   5   -0.39    0.47 
   3  -5   5    0.30    0.38 
   3  -5   5    0.67    0.61 
   3  -5   5    0.08    0.38 
   3  -5   5   -0.12    0.58 
   3  -5   5    0.01    0.41 
   3  -5   4    2.79    0.32 
   3  -5   4    3.12    0.29 
   3  -5   4    1.74    0.51 
   3  -5   4    2.54    0.74 
   3  -5   4    1.23    0.48 
   3  -5   4    2.31    0.71 
   3  -5   4    2.17    0.51 
   3  -5   3   13.44    0.51 
   3  -5   3   12.98    0.44 
   3  -5   3   10.99    0.83 
   3  -5   3   10.58    1.07 
   3  -5   3    8.29    0.97 
   3  -5   3   10.69    0.80 
   3  -5   2   14.98    0.46 
   3  -5   2   13.73    0.91 
   3  -5   2   10.23    1.14 
   3  -5   2    9.00    0.78 
   3  -5   2   15.13    0.53 
   3  -5   1  104.92    1.55 
   3  -5   1  102.16    2.36 
   3  -5   1   65.82    2.50 
   3  -5   1  115.47    1.69 
   3  -5   1   64.91    2.04 
   3  -5   1   28.76    1.98 
   3  -5   1   25.21    1.91 
   3  -5   0   61.86    2.43 
   3  -5   0   59.46    1.99 
   3  -5  -1    0.13    0.49 
   3  -5  -1   -0.38    0.48 
   3  -5  -2    0.44    0.55 
   3  -5  -2   -0.20    0.56 
   3  -5  -3    0.08    0.56 
   3  -5  -3   -0.19    0.61 
   3  -5  -3   -0.13    0.57 
   3  -5  -4    7.04    1.71 
   3  -5  -4    4.80    1.25 
   3  -5  -4   13.85    1.04 
   3  -5  -4   11.13    1.00 
   3  -5  -4    5.75    1.35 
   3  -5  -4    4.59    1.25 
   3  -5  -4   14.30    1.20 
   3  -5  -5    1.52    0.87 
   3  -5  -5   -0.10    1.50 
   3  -5  -5    0.76    0.84 
   3  -5  -5   -0.24    1.03 
   3  -5  -6   19.47    1.56 
   3  -5  -6   20.17    1.53 
   3  -5  -7    8.93    0.70 
   3  -5  -7    8.26    0.72 
   3  -5  -8    0.02    0.64 
   3  -6   9   -0.03    0.36 
   3  -6   9    0.04    0.22 
   3  -6   8   -0.15    0.23 
   3  -6   8    0.47    0.31 
   3  -6   7    0.77    0.68 
   3  -6   7   -0.02    0.35 
   3  -6   7   -0.11    0.15 
   3  -6   7    0.19    0.17 
   3  -6   7    0.12    0.19 
   3  -6   6    2.09    0.22 
   3  -6   6    2.19    0.27 
   3  -6   6    2.14    0.39 
   3  -6   6    2.66    0.25 
   3  -6   5   -0.07    0.20 
   3  -6   5    0.32    0.41 
   3  -6   5    0.25    0.47 
   3  -6   5    0.27    0.23 
   3  -6   4    0.26    0.22 
   3  -6   4    0.23    0.50 
   3  -6   4    0.20    0.33 
   3  -6   4    0.30    0.57 
   3  -6   4    0.24    0.33 
   3  -6   4    0.17    0.45 
   3  -6   4    0.50    0.24 
   3  -6   3    5.76    0.36 
   3  -6   3    5.33    0.32 
   3  -6   3    3.90    0.79 
   3  -6   3    4.19    0.62 
   3  -6   3    3.27    0.69 
   3  -6   2    4.01    0.59 
   3  -6   2    3.93    0.77 
   3  -6   2    4.82    0.36 
   3  -6   2    4.40    0.31 
   3  -6   2    3.71    0.82 
   3  -6   2    4.16    0.68 
   3  -6   2    1.73    0.47 
   3  -6   2    2.54    0.70 
   3  -6   1   19.01    1.37 
   3  -6   1   17.63    1.02 
   3  -6   1   16.08    1.29 
   3  -6   0    2.97    0.55 
   3  -6   0    3.61    0.59 
   3  -6   0    0.42    0.83 
   3  -6   0   -0.38    0.65 
   3  -6   0   23.53    1.66 
   3  -6   0   19.06    1.50 
   3  -6   0    0.64    0.74 
   3  -6   0    4.61    0.42 
   3  -6  -1    2.57    0.64 
   3  -6  -1    0.78    0.54 
   3  -6  -1   45.28    2.19 
   3  -6  -1   38.37    2.03 
   3  -6  -1    0.50    0.68 
   3  -6  -1    2.80    0.60 
   3  -6  -2    2.37    0.66 
   3  -6  -2    1.83    0.61 
   3  -6  -2    0.57    1.68 
   3  -6  -2    0.49    0.67 
   3  -6  -2    1.94    0.33 
   3  -6  -2    1.70    0.33 
   3  -6  -3    2.14    0.60 
   3  -6  -3    1.89    0.63 
   3  -6  -3    0.69    1.21 
   3  -6  -4    0.02    0.48 
   3  -6  -4    0.21    0.54 
   3  -6  -4   -0.03    0.40 
   3  -6  -5    4.84    0.90 
   3  -6  -5    2.63    0.47 
   3  -6  -5    4.38    0.88 
   3  -6  -6    0.73    0.51 
   3  -6  -6    1.40    0.51 
   3  -6  -7    1.62    0.59 
   3  -7   8   -0.06    0.27 
   3  -7   6   -0.08    0.15 
   3  -7   6    0.23    0.17 
   3  -7   6    0.42    0.32 
   3  -7   5    0.60    0.15 
   3  -7   5    0.41    0.18 
   3  -7   5    0.04    0.18 
   3  -7   5    0.03    0.18 
   3  -7   4   -0.16    0.17 
   3  -7   4    0.17    0.33 
   3  -7   4    0.00    0.20 
   3  -7   4   -0.01    0.21 
   3  -7   4   -0.02    0.22 
   3  -7   4    0.01    0.24 
   3  -7   3   -0.20    0.40 
   3  -7   3   -0.19    0.29 
   3  -7   3   -0.06    0.20 
   3  -7   3    0.01    0.34 
   3  -7   2    0.63    0.41 
   3  -7   2    0.57    0.31 
   3  -7   2    0.91    0.27 
   3  -7   2    0.05    0.28 
   3  -7   2    0.48    0.40 
   3  -7   1    7.17    0.42 
   3  -7   1    7.40    0.40 
   3  -7   1    6.66    0.38 
   3  -7   0    9.12    0.70 
   3  -7   0    8.03    0.74 
   3  -7   0    9.19    0.42 
   3  -7  -1    0.26    0.46 
   3  -7  -1    0.15    0.25 
   3  -7  -1   -0.07    0.26 
   3  -7  -1   -0.29    0.46 
   3  -7  -2    0.23    0.37 
   3  -7  -2    0.06    0.46 
   3  -7  -2   -0.12    0.24 
   3  -7  -2    0.17    0.25 
   3  -7  -2    0.09    0.44 
   3  -7  -3   -0.04    0.35 
   3  -7  -3    0.37    0.55 
   3  -7  -3    1.11    0.58 
   3  -7  -3    0.23    0.42 
   3  -7  -3    0.43    0.47 
   3  -7  -4    0.38    0.34 
   3  -7  -4    0.04    0.33 
   3  -7  -5    0.15    0.30 
   3  -7  -5   -0.12    0.40 
   3  -7  -5   -0.27    0.39 
   3  -8   5    0.36    0.23 
   3  -8   4   -0.02    0.14 
   3  -8   4   -0.01    0.15 
   3  -8   4   -0.07    0.15 
   3  -8   3    0.80    0.20 
   3  -8   2    0.20    0.22 
   3  -8   2    0.05    0.19 
   3  -8   2    1.18    0.20 
   3  -8   2    1.08    0.22 
   3  -8   1   -0.08    0.23 
   3  -8   1    0.14    0.19 
   3  -8   1   -0.05    0.19 
   3  -8   1   -0.13    0.20 
   3  -8   0    0.01    0.19 
   3  -8   0    0.08    0.20 
   3  -8  -1    0.17    0.18 
   3  -8  -1   -0.01    0.18 
   3  -8  -1   -0.04    0.26 
   3  -8  -2    0.37    0.27 
   3  -8  -3   -0.06    0.23 
   4   8   6    0.11    0.68 
   4   8   5    0.85    0.91 
   4   8   5    0.18    0.86 
   4   8   4    1.28    1.00 
   4   8   4    0.03    0.96 
   4   8   4    0.06    0.23 
   4   8   4   -0.23    0.23 
   4   8   4    0.10    0.25 
   4   8   4    0.33    0.34 
   4   8   4    0.14    0.34 
   4   8   3    1.61    1.09 
   4   8   3    0.37    1.08 
   4   8   3    0.54    0.28 
   4   8   3    0.47    0.27 
   4   8   3    0.14    0.29 
   4   8   3    0.41    0.38 
   4   8   3    0.56    0.38 
   4   8   2    0.36    0.42 
   4   8   2    0.36    0.41 
   4   8   2    0.45    0.31 
   4   8   2    0.13    0.29 
   4   8   2    0.41    0.32 
   4   8   1    0.09    0.38 
   4   8   1    0.20    0.41 
   4   8   1    0.14    0.30 
   4   8   1    0.44    0.56 
   4   8   1   -0.16    0.43 
   4   8   1    0.13    0.42 
   4   8   0   -0.40    0.44 
   4   8   0   -0.17    0.43 
   4   8   0   -0.18    0.33 
   4   8   0    0.27    0.42 
   4   8   0   -0.63    0.47 
   4   8  -1   -0.08    0.41 
   4   8  -1    0.11    0.41 
   4   8  -1    0.38    0.33 
   4   8  -1    0.66    0.29 
   4   8  -1    0.77    0.29 
   4   8  -1    0.23    0.48 
   4   8  -1    0.08    0.49 
   4   8  -2    0.59    0.32 
   4   8  -2    0.79    0.31 
   4   8  -2    0.90    0.31 
   4   8  -3    0.63    0.30 
   4   8  -3    0.59    0.30 
   4   8  -4    2.52    0.32 
   4   8  -4    2.47    0.32 
   4   8  -5    0.74    0.60 
   4   7   8    0.03    0.56 
   4   7   7    1.13    0.31 
   4   7   7    1.16    0.31 
   4   7   6    1.49    0.39 
   4   7   6    1.39    0.38 
   4   7   6    1.38    1.03 
   4   7   6    0.39    0.94 
   4   7   6    1.26    0.26 
   4   7   6    1.39    0.27 
   4   7   6    0.95    0.26 
   4   7   5    0.58    0.29 
   4   7   5    0.70    0.30 
   4   7   5    0.99    0.45 
   4   7   5    0.72    0.44 
   4   7   5    0.32    0.58 
   4   7   4   -0.26    0.65 
   4   7   4    0.14    1.20 
   4   7   4    0.16    1.12 
   4   7   4   -0.24    0.32 
   4   7   4    0.05    0.33 
   4   7   3    0.63    1.19 
   4   7   3    0.26    1.21 
   4   7   3   -0.21    0.35 
   4   7   3    0.47    0.37 
   4   7   3    0.18    0.37 
   4   7   3   -0.03    0.69 
   4   7   3   -0.21    0.62 
   4   7   2    0.92    0.75 
   4   7   2    0.92    0.45 
   4   7   2    3.09    1.31 
   4   7   2    0.89    1.31 
   4   7   2    0.41    0.61 
   4   7   2    0.82    0.62 
   4   7   2    0.78    0.85 
   4   7   1    1.25    0.89 
   4   7   1    1.62    0.52 
   4   7   1    0.99    0.53 
   4   7   1    0.58    0.56 
   4   7   1    2.42    1.33 
   4   7   1    0.21    1.38 
   4   7   1    1.60    0.97 
   4   7   1    1.93    0.76 
   4   7   1   -0.44    0.71 
   4   7   1    1.48    0.67 
   4   7   1    0.67    0.64 
   4   7   0    0.33    1.32 
   4   7   0    0.52    0.91 
   4   7   0    0.92    0.78 
   4   7   0    0.10    0.79 
   4   7   0    0.73    0.67 
   4   7   0    0.05    0.64 
   4   7   0    0.17    0.48 
   4   7   0    0.42    0.35 
   4   7   0    0.41    0.35 
   4   7  -1    0.33    0.64 
   4   7  -1   -0.04    0.64 
   4   7  -1   -0.10    0.48 
   4   7  -1   -0.04    0.38 
   4   7  -1    0.42    0.39 
   4   7  -1   -0.74    0.90 
   4   7  -1   -0.05    0.66 
   4   7  -1   -0.40    0.91 
   4   7  -1    0.08    0.85 
   4   7  -1    0.26    0.73 
   4   7  -2    0.21    0.62 
   4   7  -2    0.63    0.65 
   4   7  -2    0.06    0.50 
   4   7  -2    0.18    0.48 
   4   7  -2   -0.20    0.44 
   4   7  -2    0.06    0.45 
   4   7  -2    0.16    0.52 
   4   7  -2   -0.77    0.89 
   4   7  -2    0.73    0.68 
   4   7  -2    0.04    0.87 
   4   7  -2    1.34    0.91 
   4   7  -2    0.29    0.76 
   4   7  -3    1.21    0.60 
   4   7  -3    2.11    0.64 
   4   7  -3    0.10    0.84 
   4   7  -3    1.16    0.54 
   4   7  -3    2.03    0.53 
   4   7  -3    1.89    0.50 
   4   7  -3    2.90    0.54 
   4   7  -3    2.04    0.59 
   4   7  -3    0.38    0.89 
   4   7  -3   -0.70    1.33 
   4   7  -3    2.51    0.76 
   4   7  -3    2.11    0.82 
   4   7  -4    1.05    0.67 
   4   7  -4    0.03    0.45 
   4   7  -4    0.92    0.45 
   4   7  -4    0.22    0.45 
   4   7  -4    0.36    0.46 
   4   7  -4    0.69    0.49 
   4   7  -4    1.55    0.75 
   4   7  -5    1.32    0.60 
   4   7  -5    0.53    0.41 
   4   7  -5    1.36    0.41 
   4   7  -5    0.67    0.41 
   4   7  -5    1.01    0.42 
   4   7  -5    1.08    0.45 
   4   7  -5    1.74    0.72 
   4   7  -6   -0.10    0.47 
   4   7  -6    0.37    0.86 
   4   7  -6    0.16    0.53 
   4   7  -6   -0.08    0.34 
   4   7  -6    0.02    0.34 
   4   6   9    0.19    0.54 
   4   6   8   -0.44    0.81 
   4   6   8    0.10    0.78 
   4   6   8   -0.08    0.29 
   4   6   8   -0.06    0.29 
   4   6   7    0.22    1.01 
   4   6   7   -0.20    0.50 
   4   6   7    0.01    0.38 
   4   6   7    0.52    0.38 
   4   6   7   -0.15    0.21 
   4   6   7   -0.07    0.20 
   4   6   7    0.41    0.26 
   4   6   6    3.95    0.57 
   4   6   6    4.89    0.58 
   4   6   6    3.46    0.36 
   4   6   6    2.56    0.37 
   4   6   6    4.78    0.42 
   4   6   6    4.24    0.81 
   4   6   6    3.68    0.72 
   4   6   6    3.89    0.38 
   4   6   5    0.36    0.32 
   4   6   5    0.12    0.38 
   4   6   5    0.18    0.34 
   4   6   5   -0.04    0.33 
   4   6   5    0.20    0.72 
   4   6   5    0.31    0.65 
   4   6   5    0.55    0.54 
   4   6   5    0.35    0.52 
   4   6   5   -0.17    0.53 
   4   6   4    0.04    0.42 
   4   6   4    0.80    0.39 
   4   6   4    0.99    0.41 
   4   6   4    0.97    0.40 
   4   6   4    0.81    0.63 
   4   6   4    0.31    0.76 
   4   6   4    1.07    0.62 
   4   6   4    0.46    0.60 
   4   6   3    0.12    0.45 
   4   6   3   -0.05    0.66 
   4   6   3   -0.11    0.70 
   4   6   3   -0.13    0.81 
   4   6   3    0.31    0.68 
   4   6   3   -0.20    0.66 
   4   6   2    0.13    0.83 
   4   6   2    0.25    1.07 
   4   6   2    0.15    0.90 
   4   6   2    1.05    0.42 
   4   6   2    0.22    0.70 
   4   6   2    0.67    0.75 
   4   6   1    0.15    1.02 
   4   6   1    0.28    0.58 
   4   6   1    0.52    0.60 
   4   6   1   -0.63    1.21 
   4   6   1    0.10    0.74 
   4   6   1    0.72    0.70 
   4   6   1   -0.25    0.67 
   4   6   1   -0.63    0.90 
   4   6   1    0.09    1.34 
   4   6   1    0.15    0.43 
   4   6   1    0.30    0.41 
   4   6   0    1.54    0.85 
   4   6   0    4.74    0.59 
   4   6   0    4.25    0.52 
   4   6   0    1.14    1.15 
   4   6   0    1.98    0.74 
   4   6   0    3.00    0.49 
   4   6   0    2.52    0.48 
   4   6   0    1.80    0.73 
   4   6   0    1.77    1.35 
   4   6   0    2.99    1.13 
   4   6   0    1.96    0.91 
   4   6   0    2.13    1.04 
   4   6   0    1.24    0.81 
   4   6   0    2.47    0.77 
   4   6   0    4.00    1.42 
   4   6  -1    5.56    0.66 
   4   6  -1    1.10    0.89 
   4   6  -1    2.01    1.08 
   4   6  -1    1.72    0.93 
   4   6  -1    1.96    0.74 
   4   6  -1    2.74    0.58 
   4   6  -1    1.89    0.57 
   4   6  -1    1.64    0.76 
   4   6  -1    1.49    0.94 
   4   6  -1    1.88    1.41 
   4   6  -1    3.69    0.89 
   4   6  -2    2.17    0.62 
   4   6  -2    0.89    0.56 
   4   6  -2    1.32    0.96 
   4   6  -2    1.88    0.96 
   4   6  -2    0.63    1.00 
   4   6  -2    1.69    1.34 
   4   6  -2    1.40    0.60 
   4   6  -2    0.78    0.59 
   4   6  -2   -0.26    0.94 
   4   6  -3    0.96    1.15 
   4   6  -3    3.33    0.66 
   4   6  -3    2.04    0.65 
   4   6  -3    0.51    0.96 
   4   6  -3   -0.63    1.09 
   4   6  -3    4.48    0.70 
   4   6  -3    5.46    0.80 
   4   6  -4    1.59    0.61 
   4   6  -4    1.62    0.62 
   4   6  -4    0.83    0.62 
   4   6  -4    0.52    0.93 
   4   6  -4   -0.48    1.05 
   4   6  -4    1.07    1.16 
   4   6  -5    2.27    0.63 
   4   6  -5    2.29    0.62 
   4   6  -5    1.35    0.67 
   4   6  -5    0.56    0.89 
   4   6  -5    0.65    0.98 
   4   6  -5    0.73    1.02 
   4   6  -6   -1.16    0.78 
   4   6  -6   -1.15    0.89 
   4   6  -6    0.45    0.59 
   4   6  -6    0.58    0.54 
   4   6  -6    0.58    0.54 
   4   6  -7   -0.52    0.95 
   4   6  -7   -0.05    0.42 
   4   6  -7   -0.04    0.42 
   4   6  -7    0.01    0.47 
   4   5   9    1.71    0.67 
   4   5   8    0.44    0.28 
   4   5   8   -0.10    0.23 
   4   5   8   -0.27    0.33 
   4   5   8   -0.05    0.33 
   4   5   8   -0.24    0.46 
   4   5   7   22.66    0.64 
   4   5   7   21.34    0.65 
   4   5   7   20.26    1.31 
   4   5   7   18.47    1.27 
   4   5   7   20.35    0.76 
   4   5   7   20.83    0.76 
   4   5   6    0.38    0.48 
   4   5   6   -0.29    0.46 
   4   5   6    0.54    0.48 
   4   5   6   -0.12    0.54 
   4   5   6   -0.55    0.47 
   4   5   6   -0.18    0.27 
   4   5   6    0.15    0.32 
   4   5   6    0.40    0.39 
   4   5   6    0.02    0.28 
   4   5   6   -0.27    0.36 
   4   5   6   -0.23    0.39 
   4   5   6   -0.60    0.73 
   4   5   6    0.07    0.70 
   4   5   6    0.48    0.92 
   4   5   5    5.13    1.10 
   4   5   5    3.45    1.04 
   4   5   5    5.34    0.58 
   4   5   5    4.50    0.69 
   4   5   5    4.62    0.70 
   4   5   5    5.78    0.47 
   4   5   5    5.70    0.46 
   4   5   5    2.48    0.53 
   4   5   5    4.25    0.54 
   4   5   5    4.89    0.90 
   4   5   5    4.42    0.55 
   4   5   5    4.59    0.56 
   4   5   5    2.46    0.97 
   4   5   5    4.44    0.76 
   4   5   5    3.07    0.80 
   4   5   4    0.22    0.63 
   4   5   4    0.83    0.63 
   4   5   4    0.23    0.70 
   4   5   4    0.20    0.63 
   4   5   4    0.32    0.37 
   4   5   4    0.13    0.42 
   4   5   4    0.59    0.38 
   4   5   4    0.66    0.92 
   4   5   4    0.24    0.74 
   4   5   4    1.04    0.95 
   4   5   4   -0.24    0.88 
   4   5   4    0.18    0.40 
   4   5   3    0.15    0.48 
   4   5   3    0.35    1.06 
   4   5   3   -0.21    0.96 
   4   5   3   -0.04    0.67 
   4   5   3    0.39    0.88 
   4   5   3   -0.26    0.81 
   4   5   3    0.54    0.78 
   4   5   3    0.20    0.74 
   4   5   3    0.05    0.72 
   4   5   2    2.65    0.88 
   4   5   2    4.31    0.67 
   4   5   2    3.61    0.64 
   4   5   2    1.75    0.65 
   4   5   2    3.26    0.90 
   4   5   2    4.01    1.14 
   4   5   2    3.92    0.96 
   4   5   2    5.47    0.51 
   4   5   2    5.86    0.60 
   4   5   2   -0.69    0.80 
   4   5   2    3.67    1.06 
   4   5   1    0.64    0.69 
   4   5   1    2.55    1.23 
   4   5   1    3.48    0.74 
   4   5   1    1.28    0.73 
   4   5   1    3.01    0.69 
   4   5   1    5.03    0.53 
   4   5   1    5.38    0.57 
   4   5   1    3.43    1.03 
   4   5   1    2.19    0.65 
   4   5   1    2.82    0.96 
   4   5   1    2.12    0.78 
   4   5   1    3.27    1.17 
   4   5   1    1.60    0.75 
   4   5   0    0.13    1.14 
   4   5   0    0.33    0.67 
   4   5   0    0.28    0.64 
   4   5   0    0.13    0.41 
   4   5   0   -0.03    0.40 
   4   5   0    0.46    0.79 
   4   5   0    0.49    0.69 
   4   5   0   -0.03    0.76 
   4   5   0    0.04    1.06 
   4   5   0    0.11    0.75 
   4   5  -1   -0.05    0.53 
   4   5  -1    0.41    0.54 
   4   5  -1    0.78    0.46 
   4   5  -1   -0.35    0.39 
   4   5  -1   -0.34    0.92 
   4   5  -1   -0.28    1.15 
   4   5  -1   -0.75    0.93 
   4   5  -1    0.73    1.26 
   4   5  -2   10.58    1.31 
   4   5  -2   10.71    0.84 
   4   5  -2    2.71    1.49 
   4   5  -2    7.39    0.78 
   4   5  -2    6.26    0.79 
   4   5  -2    5.73    1.37 
   4   5  -2    3.86    0.91 
   4   5  -2    4.74    1.27 
   4   5  -2    4.28    1.43 
   4   5  -2    4.61    1.20 
   4   5  -2   12.41    2.47 
   4   5  -3   47.45    1.92 
   4   5  -3    1.45    0.74 
   4   5  -3    6.20    0.84 
   4   5  -3    4.52    0.81 
   4   5  -3   48.01    2.04 
   4   5  -3    1.76    0.84 
   4   5  -3    2.03    1.11 
   4   5  -3    1.19    1.09 
   4   5  -3   66.91    4.17 
   4   5  -3    5.00    0.82 
   4   5  -4  140.61    4.96 
   4   5  -4    0.37    0.65 
   4   5  -4   18.08    1.05 
   4   5  -4   13.43    1.01 
   4   5  -4    0.29    0.99 
   4   5  -4  106.45    5.02 
   4   5  -4    0.47    1.03 
   4   5  -4    0.88    1.06 
   4   5  -4    0.68    0.73 
   4   5  -4    0.11    0.81 
   4   5  -5   32.07    1.22 
   4   5  -5   29.08    1.22 
   4   5  -5    0.53    0.83 
   4   5  -5    0.60    1.00 
   4   5  -5    0.10    1.28 
   4   5  -5    0.94    0.76 
   4   5  -6    0.89    1.01 
   4   5  -6    0.64    0.86 
   4   5  -6   35.92    1.24 
   4   5  -6   31.82    1.20 
   4   5  -6    0.45    1.16 
   4   5  -7   14.91    0.88 
   4   5  -7   10.40    0.84 
   4   5  -7   59.79    1.76 
   4   5  -7   -0.52    1.16 
   4   5  -7   64.93    1.95 
   4   5  -7    1.06    0.76 
   4   5  -7    0.38    0.86 
   4   5  -8    0.44    0.58 
   4   4  10    0.42    0.55 
   4   4   9   -0.42    0.32 
   4   4   9    0.25    0.27 
   4   4   8    5.26    0.49 
   4   4   8    8.54    0.49 
   4   4   8    8.54    0.49 
   4   4   8   10.07    0.42 
   4   4   8   10.95    0.50 
   4   4   8    9.37    0.81 
   4   4   8    9.31    0.97 
   4   4   8    9.94    0.88 
   4   4   8    5.62    0.92 
   4   4   7    0.64    0.42 
   4   4   7    0.78    0.41 
   4   4   7    0.24    0.47 
   4   4   7    0.59    0.64 
   4   4   7    0.89    0.40 
   4   4   7    0.68    0.29 
   4   4   7    0.33    0.39 
   4   4   7    0.46    0.40 
   4   4   7    0.97    0.86 
   4   4   7    0.97    0.63 
   4   4   7    0.45    0.76 
   4   4   6    3.31    0.87 
   4   4   6    2.53    0.61 
   4   4   6    3.84    1.00 
   4   4   6    2.10    0.53 
   4   4   6    1.60    0.51 
   4   4   6    3.24    0.82 
   4   4   6    2.48    0.56 
   4   4   6    2.89    0.50 
   4   4   6    3.05    0.38 
   4   4   6    2.81    0.64 
   4   4   6    1.59    0.48 
   4   4   6    1.81    0.48 
   4   4   6    2.38    0.45 
   4   4   6    1.06    0.86 
   4   4   5    0.69    0.81 
   4   4   5   -0.36    0.63 
   4   4   5   -0.20    0.88 
   4   4   5    0.70    0.51 
   4   4   5    0.41    0.50 
   4   4   5   -0.04    0.49 
   4   4   5    0.58    0.77 
   4   4   5    0.33    0.28 
   4   4   5    0.77    0.35 
   4   4   5    0.33    0.29 
   4   4   5    0.63    0.59 
   4   4   5    0.43    0.39 
   4   4   5    0.14    0.38 
   4   4   5    0.32    0.40 
   4   4   5   -1.27    0.84 
   4   4   4    3.58    0.72 
   4   4   4    4.56    0.74 
   4   4   4    3.53    1.01 
   4   4   4    3.35    0.78 
   4   4   4    2.22    0.53 
   4   4   4    5.79    0.58 
   4   4   4    5.41    0.56 
   4   4   4    5.53    0.89 
   4   4   4    5.70    0.60 
   4   4   4    3.35    1.11 
   4   4   3    0.23    0.84 
   4   4   3   -0.10    0.65 
   4   4   3    0.39    0.38 
   4   4   3    0.07    0.42 
   4   4   3    0.25    0.38 
   4   4   3    0.23    0.31 
   4   4   3    0.46    0.30 
   4   4   3    0.18    0.65 
   4   4   3    0.33    0.82 
   4   4   3    0.37    0.98 
   4   4   3    0.48    0.61 
   4   4   3    0.35    0.63 
   4   4   2    0.55    0.47 
   4   4   2    0.57    0.49 
   4   4   2    0.71    0.50 
   4   4   2    1.32    0.41 
   4   4   2   -0.44    0.78 
   4   4   2    0.86    0.78 
   4   4   2    0.98    0.91 
   4   4   2    0.90    1.13 
   4   4   2    0.89    0.84 
   4   4   1    3.69    1.18 
   4   4   1    5.17    0.70 
   4   4   1    4.00    0.68 
   4   4   1    3.18    0.71 
   4   4   1    3.30    1.18 
   4   4   1    2.72    0.70 
   4   4   1    5.07    0.48 
   4   4   1    6.22    0.55 
   4   4   1    2.81    1.45 
   4   4   1    3.71    1.09 
   4   4   0    1.89    0.41 
   4   4   0    2.62    0.43 
   4   4   0    3.02    1.20 
   4   4   0    1.10    0.68 
   4   4   0    0.66    0.75 
   4   4   0    1.94    0.81 
   4   4   0    1.18    1.15 
   4   4   0    1.92    0.75 
   4   4   0    1.95    1.22 
   4   4  -1   -0.29    1.25 
   4   4  -1    1.05    0.52 
   4   4  -1    1.23    0.53 
   4   4  -1    2.39    1.74 
   4   4  -1   -0.05    0.33 
   4   4  -1   -1.05    0.90 
   4   4  -1   -0.23    1.08 
   4   4  -1   -0.19    0.85 
   4   4  -2    1.47    0.67 
   4   4  -2    1.74    0.93 
   4   4  -2    0.97    0.92 
   4   4  -2    0.52    0.61 
   4   4  -2    0.78    0.60 
   4   4  -2    1.69    0.40 
   4   4  -2    1.50    1.31 
   4   4  -3    1.05    0.79 
   4   4  -3   -0.36    0.59 
   4   4  -3    0.03    0.70 
   4   4  -3    0.57    0.96 
   4   4  -3    1.21    1.00 
   4   4  -4    5.31    0.80 
   4   4  -4    1.55    0.87 
   4   4  -4    2.83    1.11 
   4   4  -4    2.77    1.10 
   4   4  -4    3.83    1.24 
   4   4  -5   -1.02    0.95 
   4   4  -5    3.39    0.83 
   4   4  -5    0.44    1.10 
   4   4  -5    1.80    1.06 
   4   4  -5    1.33    1.00 
   4   4  -6   -5.80    3.27 
   4   4  -6    0.30    1.11 
   4   4  -7    0.43    1.15 
   4   4  -7   37.33    1.67 
   4   4  -8  127.52    5.89 
   4   4  -8    6.17    1.20 
   4   4  -8  121.91    1.88 
   4   4  -8  124.50    1.94 
   4   4  -9   34.40    1.32 
   4   4  -9   46.71    1.57 
   4   3  11    0.37    0.39 
   4   3  10    0.29    0.28 
   4   3  10    0.46    0.60 
   4   3   9    1.17    0.37 
   4   3   9    0.98    0.73 
   4   3   8   13.26    1.06 
   4   3   8   18.30    1.03 
   4   3   8   19.09    1.04 
   4   3   8   23.00    0.78 
   4   3   8   13.80    0.60 
   4   3   8   17.50    0.62 
   4   3   8   26.37    0.62 
   4   3   8   26.93    1.33 
   4   3   8   23.26    1.13 
   4   3   8   25.35    1.20 
   4   3   7    0.86    0.58 
   4   3   7    0.69    0.65 
   4   3   7    0.40    0.36 
   4   3   7    0.95    0.51 
   4   3   7    0.57    0.36 
   4   3   7    0.23    0.74 
   4   3   7    0.97    0.27 
   4   3   7    0.75    0.43 
   4   3   7    0.52    0.44 
   4   3   7    0.77    0.53 
   4   3   7    0.98    0.59 
   4   3   7    0.80    0.56 
   4   3   7   -0.36    0.83 
   4   3   6   89.47    2.25 
   4   3   6  100.84    2.00 
   4   3   6  101.93    2.00 
   4   3   6  116.22    3.02 
   4   3   6  118.55    1.91 
   4   3   6  133.06    3.27 
   4   3   6   68.65    2.75 
   4   3   6  111.44    2.96 
   4   3   6   91.49    2.48 
   4   3   6   93.81    2.48 
   4   3   6   46.03    2.03 
   4   3   6  102.01    2.79 
   4   3   6  105.39    2.93 
   4   3   5    3.13    0.51 
   4   3   5    2.71    0.51 
   4   3   5    2.70    0.50 
   4   3   5    2.95    0.52 
   4   3   5    2.79    0.91 
   4   3   5    3.26    0.37 
   4   3   5    2.48    0.82 
   4   3   5    1.68    0.74 
   4   3   5    3.64    0.97 
   4   3   5    3.06    0.51 
   4   3   5    2.86    0.51 
   4   3   5   -0.29    0.75 
   4   3   5    3.25    0.79 
   4   3   5    3.14    0.84 
   4   3   4    0.98    0.49 
   4   3   4    0.96    0.49 
   4   3   4    1.11    0.86 
   4   3   4    1.18    0.50 
   4   3   4    0.83    0.34 
   4   3   4    1.30    0.41 
   4   3   4    1.29    0.82 
   4   3   4    1.39    0.87 
   4   3   4    1.32    0.72 
   4   3   4    1.53    0.77 
   4   3   4    1.15    0.39 
   4   3   4    1.34    0.39 
   4   3   3    0.94    0.58 
   4   3   3    0.88    0.34 
   4   3   3    1.61    0.38 
   4   3   3    0.82    0.35 
   4   3   3    1.39    0.73 
   4   3   3    1.43    0.80 
   4   3   3    1.42    0.89 
   4   3   3    0.85    0.87 
   4   3   3    1.73    0.37 
   4   3   3    1.35    0.35 
   4   3   3    0.21    0.57 
   4   3   3    0.34    0.56 
   4   3   2    5.26    0.52 
   4   3   2    1.50    0.66 
   4   3   2    1.86    0.47 
   4   3   2    2.54    0.47 
   4   3   2    2.17    0.47 
   4   3   2    2.49    0.79 
   4   3   2    2.22    0.92 
   4   3   2    3.34    0.81 
   4   3   2    3.65    0.41 
   4   3   2    3.47    0.40 
   4   3   2    1.87    1.07 
   4   3   1   23.18    1.76 
   4   3   1   24.97    1.58 
   4   3   0    0.19    1.04 
   4   3   0    1.05    0.37 
   4   3   0    0.37    0.64 
   4   3   0    0.23    0.63 
   4   3   0   -1.81    1.18 
   4   3  -1    3.04    0.67 
   4   3  -1   -1.34    1.17 
   4   3  -1   27.88    1.50 
   4   3  -1   12.90    1.68 
   4   3  -1   26.71    1.47 
   4   3  -1   35.28    0.97 
   4   3  -2    2.35    0.48 
   4   3  -2    2.23    0.37 
   4   3  -2    1.85    0.88 
   4   3  -2    1.87    0.85 
   4   3  -3   -1.38    1.65 
   4   3  -3    3.72    1.07 
   4   3  -3    8.07    1.16 
   4   3  -3    6.27    1.12 
   4   3  -3   10.22    0.74 
   4   3  -3    0.50    1.46 
   4   3  -4    8.59    1.54 
   4   3  -4   12.33    1.22 
   4   3  -4   17.35    1.55 
   4   3  -4   26.89    1.19 
   4   3  -4   18.04    1.57 
   4   3  -4   16.86    1.96 
   4   3  -4   26.06    1.40 
   4   3  -5    4.52    1.00 
   4   3  -5    2.13    1.10 
   4   3  -5    1.15    1.14 
   4   3  -5    3.52    1.08 
   4   3  -5    3.11    1.05 
   4   3  -5    5.85    0.83 
   4   3  -6    1.97    0.97 
   4   3  -6    0.58    1.07 
   4   3  -6   -0.04    1.14 
   4   3  -6    1.98    0.99 
   4   3  -6    2.02    1.01 
   4   3  -6    3.41    0.88 
   4   3  -7   -1.48    1.16 
   4   3  -7   -0.79    1.15 
   4   3  -7   -0.42    0.94 
   4   3  -8    0.99    1.09 
   4   3  -8    0.27    1.15 
   4   3  -9   72.94    2.22 
   4   2  11   -0.03    0.44 
   4   2  10   -0.13    0.25 
   4   2  10   -0.23    0.64 
   4   2   9    0.45    0.54 
   4   2   9    0.82    0.28 
   4   2   9    0.61    0.28 
   4   2   9    0.93    0.32 
   4   2   9    0.43    0.63 
   4   2   9    0.45    0.43 
   4   2   9   -0.59    0.79 
   4   2   8    7.47    0.71 
   4   2   8    4.02    0.46 
   4   2   8    4.60    0.45 
   4   2   8    9.60    0.49 
   4   2   8    5.95    0.65 
   4   2   8    6.65    0.67 
   4   2   8    5.88    0.73 
   4   2   8    6.67    0.80 
   4   2   8    8.89    1.00 
   4   2   7    0.37    0.44 
   4   2   7    0.52    0.41 
   4   2   7    1.36    0.62 
   4   2   7    0.25    0.60 
   4   2   7    0.64    0.46 
   4   2   7    0.72    0.45 
   4   2   7    1.22    0.53 
   4   2   7    1.11    0.62 
   4   2   7    0.99    0.77 
   4   2   7    0.82    0.60 
   4   2   6  127.69    3.14 
   4   2   6  137.45    2.48 
   4   2   6  138.17    3.52 
   4   2   6  127.83    3.29 
   4   2   6  141.14    3.47 
   4   2   6  134.69    3.45 
   4   2   6  117.12    2.92 
   4   2   6  127.38    3.24 
   4   2   6  127.14    3.21 
   4   2   5    2.75    0.50 
   4   2   5    2.88    0.29 
   4   2   5    1.63    0.44 
   4   2   5    2.45    0.69 
   4   2   5    2.08    0.77 
   4   2   5    2.85    0.87 
   4   2   5    2.27    0.73 
   4   2   5    2.47    0.76 
   4   2   5    2.72    0.50 
   4   2   5    2.63    0.55 
   4   2   5    2.29    0.53 
   4   2   4    0.15    0.38 
   4   2   4   -0.09    0.36 
   4   2   4   -0.02    0.33 
   4   2   4   -0.06    0.23 
   4   2   4   -0.02    0.58 
   4   2   4   -0.44    0.72 
   4   2   4    0.29    0.61 
   4   2   4   -0.01    0.34 
   4   2   4    0.03    0.35 
   4   2   4    0.22    0.35 
   4   2   3   17.31    0.99 
   4   2   3   24.82    1.58 
   4   2   3   30.84    1.74 
   4   2   3   34.67    0.86 
   4   2   3   21.32    1.00 
   4   2   3   41.84    1.28 
   4   2   3   41.80    1.26 
   4   2   3   26.16    1.20 
   4   2   3   35.97    1.69 
   4   2   2   37.67    2.14 
   4   2   2   33.57    1.08 
   4   2   2   32.14    1.04 
   4   2   2   38.80    1.09 
   4   2   2   41.63    1.59 
   4   2   2   46.63    1.91 
   4   2   2   55.38    1.39 
   4   2   2   52.58    1.37 
   4   2   2   51.79    1.34 
   4   2   1    4.38    0.89 
   4   2   1    5.67    0.47 
   4   2   1    4.92    0.45 
   4   2   1    6.05    0.53 
   4   2   0   36.74    1.02 
   4   2   0   22.03    1.58 
   4   2  -1   20.28    1.18 
   4   2  -1   20.54    1.20 
   4   2  -1   26.11    0.91 
   4   2  -1   25.87    1.64 
   4   2  -2   55.17    2.05 
   4   2  -2   58.43    1.54 
   4   2  -2   65.66    1.52 
   4   2  -2   56.29    2.09 
   4   2  -2   65.12    2.55 
   4   2  -3    4.20    0.88 
   4   2  -3    3.02    0.88 
   4   2  -3    1.98    0.90 
   4   2  -3    5.74    0.60 
   4   2  -3    5.60    1.03 
   4   2  -4    5.25    1.15 
   4   2  -4    9.61    1.18 
   4   2  -4   11.42    1.34 
   4   2  -4   10.53    1.20 
   4   2  -4    7.22    1.18 
   4   2  -5   26.50    1.50 
   4   2  -5    9.86    1.41 
   4   2  -5   28.46    1.30 
   4   2  -5   12.42    1.40 
   4   2  -5   10.04    1.43 
   4   2  -5   13.68    1.42 
   4   2  -5    5.84    1.41 
   4   2  -6    0.04    1.02 
   4   2  -6    0.03    0.89 
   4   2  -6    0.57    0.89 
   4   2  -6    1.19    1.08 
   4   2  -6    1.95    1.05 
   4   2  -7    1.62    1.21 
   4   2  -7    1.13    1.16 
   4   2  -7   -0.02    0.97 
   4   2  -7   -1.15    0.99 
   4   2  -8    0.19    1.17 
   4   2  -8   -0.25    1.21 
   4   2  -8   -0.10    1.03 
   4   2  -8    0.11    1.01 
   4   2  -9    0.10    1.03 
   4   2  -9   -0.05    1.03 
   4   2 -10   71.50    2.19 
   4   1  11   -0.57    0.46 
   4   1  10    1.88    0.28 
   4   1  10    1.79    0.26 
   4   1  10    2.11    0.27 
   4   1   9   10.94    0.54 
   4   1   9   10.50    0.45 
   4   1   9    9.62    0.47 
   4   1   9    9.89    0.46 
   4   1   9    8.77    0.73 
   4   1   9   10.13    0.92 
   4   1   9    8.08    0.75 
   4   1   9    8.69    0.82 
   4   1   9    8.15    0.72 
   4   1   8    0.31    0.44 
   4   1   8    0.15    0.34 
   4   1   8    0.39    0.35 
   4   1   8   -0.16    0.34 
   4   1   8    0.02    0.52 
   4   1   8    0.16    0.67 
   4   1   8   -0.12    0.55 
   4   1   8   -0.09    0.45 
   4   1   8    0.17    0.62 
   4   1   7   37.99    1.03 
   4   1   7   41.69    1.66 
   4   1   7   36.87    1.50 
   4   1   7   42.78    1.59 
   4   1   7   35.39    1.47 
   4   1   7   35.37    1.45 
   4   1   7   47.32    1.73 
   4   1   7   45.29    1.65 
   4   1   7   35.98    1.43 
   4   1   6    5.69    0.88 
   4   1   6    6.09    0.91 
   4   1   6    4.56    0.94 
   4   1   6    4.86    0.70 
   4   1   6    1.09    0.45 
   4   1   6    2.14    0.56 
   4   1   6    3.57    0.56 
   4   1   6    4.32    0.67 
   4   1   6    4.62    0.70 
   4   1   6    3.81    0.75 
   4   1   5   86.32    2.38 
   4   1   5   94.04    2.34 
   4   1   5   92.06    2.56 
   4   1   5   98.20    2.48 
   4   1   5   86.34    2.10 
   4   1   5   93.21    2.38 
   4   1   5   91.58    2.33 
   4   1   4    0.58    0.54 
   4   1   4    1.11    0.58 
   4   1   4    0.60    0.30 
   4   1   4    0.92    0.52 
   4   1   4    0.07    0.59 
   4   1   4    0.34    0.38 
   4   1   4    0.82    0.44 
   4   1   4    1.14    0.46 
   4   1   4    0.80    0.47 
   4   1   4    1.11    0.72 
   4   1   3   11.40    0.76 
   4   1   3    8.92    0.98 
   4   1   3    6.17    0.90 
   4   1   3    7.11    0.88 
   4   1   3   12.04    0.80 
   4   1   3   13.54    0.82 
   4   1   3    8.94    0.84 
   4   1   3    9.56    0.95 
   4   1   2   59.54    1.95 
   4   1   2   65.89    2.15 
   4   1   2   53.45    1.33 
   4   1   2   74.42    1.73 
   4   1   2   79.07    1.91 
   4   1   2   81.45    1.91 
   4   1   2   53.32    2.26 
   4   1   2   76.84    1.84 
   4   1   1   62.86    1.60 
   4   1   1   64.01    1.59 
   4   1   0  161.68    3.37 
   4   1   0  162.80    3.35 
   4   1  -1    3.11    0.85 
   4   1  -1    2.85    0.42 
   4   1  -1    2.46    0.58 
   4   1  -1    2.26    0.57 
   4   1  -2    3.81    0.44 
   4   1  -2    3.03    0.66 
   4   1  -2    2.91    0.65 
   4   1  -3    0.31    0.41 
   4   1  -3   -0.14    0.59 
   4   1  -3    0.46    0.58 
   4   1  -4    2.82    0.56 
   4   1  -4    1.20    0.69 
   4   1  -4    1.26    0.70 
   4   1  -5    7.56    1.15 
   4   1  -5    8.79    1.18 
   4   1  -6    1.42    0.86 
   4   1  -6    1.85    0.87 
   4   1  -6    3.85    1.07 
   4   1  -6    3.62    1.04 
   4   1  -7   -0.11    1.04 
   4   1  -7    0.65    1.01 
   4   1  -7   -0.46    1.14 
   4   1  -8   -0.17    1.20 
   4   1  -8    0.08    1.24 
   4   1  -8    3.28    1.17 
   4   1  -9   -0.60    1.19 
   4   1  -9   -0.73    1.21 
   4   1  -9    0.37    1.27 
   4   0  11    1.20    0.44 
   4   0  10    0.28    0.29 
   4   0  10   -0.21    0.24 
   4   0  10    0.28    0.34 
   4   0  10   -0.17    0.25 
   4   0  10   -0.07    0.26 
   4   0   9   13.62    0.97 
   4   0   9   11.49    0.82 
   4   0   9   13.04    0.54 
   4   0   9   12.59    0.50 
   4   0   9   13.41    0.50 
   4   0   9   12.47    0.47 
   4   0   9   11.23    0.81 
   4   0   9   10.98    0.84 
   4   0   9   11.15    0.81 
   4   0   9   11.79    0.69 
   4   0   8   13.78    0.59 
   4   0   8   11.68    0.94 
   4   0   8   10.28    0.88 
   4   0   8   13.08    0.49 
   4   0   8   10.97    0.83 
   4   0   8   10.29    0.81 
   4   0   8   12.70    0.93 
   4   0   8   12.62    0.99 
   4   0   7    8.64    0.90 
   4   0   7    9.24    0.58 
   4   0   7    9.47    0.94 
   4   0   7    8.26    0.87 
   4   0   7    9.97    0.47 
   4   0   7    8.88    0.92 
   4   0   7    9.31    0.76 
   4   0   7    7.62    0.85 
   4   0   6   23.90    1.19 
   4   0   6   22.46    1.24 
   4   0   6   20.81    1.23 
   4   0   6   24.06    0.66 
   4   0   6   21.51    0.75 
   4   0   6   20.96    1.00 
   4   0   6   23.19    1.24 
   4   0   6   19.98    1.03 
   4   0   6   22.89    1.22 
   4   0   6   21.58    1.20 
   4   0   6   18.91    1.02 
   4   0   5    1.39    0.57 
   4   0   5    0.76    0.50 
   4   0   5    1.21    0.29 
   4   0   5    1.52    0.61 
   4   0   5    0.67    0.66 
   4   0   5    1.04    0.64 
   4   0   5    1.19    0.58 
   4   0   5   -0.01    0.53 
   4   0   5    0.94    0.48 
   4   0   5    1.28    0.54 
   4   0   5    1.44    0.53 
   4   0   4    0.66    0.50 
   4   0   4    0.39    0.48 
   4   0   4    0.73    0.26 
   4   0   4    0.54    0.47 
   4   0   4    0.81    0.47 
   4   0   4    0.58    0.47 
   4   0   4    0.48    0.55 
   4   0   4    0.41    0.49 
   4   0   4    0.85    0.55 
   4   0   4    0.82    0.60 
   4   0   3   14.21    0.87 
   4   0   3   15.58    0.94 
   4   0   3   15.89    0.93 
   4   0   3   11.36    0.86 
   4   0   3   12.70    0.86 
   4   0   3   12.27    0.90 
   4   0   3   15.92    1.01 
   4   0   3   12.26    0.94 
   4   0   2   11.76    0.89 
   4   0   2   10.67    0.95 
   4   0   2   17.18    1.02 
   4   0   2   16.06    0.91 
   4   0   2   17.59    0.95 
   4   0   2   17.75    0.95 
   4   0   1   17.35    0.98 
   4   0   1   11.94    1.00 
   4   0   0    2.53    0.66 
   4   0   0    0.80    0.68 
   4   0  -2    0.43    0.43 
   4   0  -2    0.19    0.43 
   4   0  -3   12.15    0.70 
   4   0  -4    6.99    0.87 
   4   0  -5    4.61    0.90 
   4   0  -6    0.57    1.06 
   4   0  -6    1.27    1.16 
   4   0  -6    5.89    1.17 
   4   0  -6    6.15    1.05 
   4   0  -7    1.50    1.12 
   4   0  -8    2.07    1.32 
   4   0  -8   10.55    1.56 
   4   0  -9   -0.60    1.30 
   4   0  -9    0.31    1.22 
   4   0 -10    0.04    1.22 
   4  -1  11    6.02    0.31 
   4  -1  10    1.26    0.28 
   4  -1  10    1.54    0.38 
   4  -1   9    0.18    0.43 
   4  -1   9    0.12    0.19 
   4  -1   9   -0.03    0.45 
   4  -1   9   -0.05    0.25 
   4  -1   9    0.64    0.33 
   4  -1   8   13.42    0.96 
   4  -1   8   14.06    0.55 
   4  -1   8   15.55    0.58 
   4  -1   8   15.01    0.56 
   4  -1   8   13.41    0.48 
   4  -1   8   11.69    0.84 
   4  -1   8   11.38    0.83 
   4  -1   8   14.48    0.98 
   4  -1   8   12.18    0.89 
   4  -1   8   13.14    0.96 
   4  -1   8   14.23    0.86 
   4  -1   7   35.04    0.88 
   4  -1   7   34.46    0.92 
   4  -1   7   35.87    0.91 
   4  -1   7   34.51    0.80 
   4  -1   7   34.50    1.48 
   4  -1   7   30.11    1.38 
   4  -1   7   34.37    1.46 
   4  -1   7   34.32    1.39 
   4  -1   7   36.39    1.46 
   4  -1   7   31.53    1.34 
   4  -1   7   33.47    1.40 
   4  -1   7   36.53    1.59 
   4  -1   6   20.44    1.00 
   4  -1   6   22.56    0.69 
   4  -1   6   24.05    1.18 
   4  -1   6   25.44    1.37 
   4  -1   6   23.00    0.61 
   4  -1   6   21.94    1.07 
   4  -1   6   23.99    1.20 
   4  -1   6   21.93    1.12 
   4  -1   6   20.20    1.14 
   4  -1   5   29.83    0.77 
   4  -1   5   32.22    1.25 
   4  -1   5   29.90    0.69 
   4  -1   5   31.95    1.51 
   4  -1   5   32.32    1.27 
   4  -1   5   28.96    1.33 
   4  -1   5   32.53    1.17 
   4  -1   5   32.83    1.32 
   4  -1   5   32.40    1.32 
   4  -1   4    0.52    0.62 
   4  -1   4    0.56    0.54 
   4  -1   4    0.42    0.22 
   4  -1   4    0.59    0.51 
   4  -1   4    0.83    0.44 
   4  -1   4    0.82    0.58 
   4  -1   4    1.03    0.52 
   4  -1   4    1.47    0.53 
   4  -1   4    0.87    0.46 
   4  -1   3    0.40    0.42 
   4  -1   3    0.57    0.40 
   4  -1   3    0.39    0.48 
   4  -1   3   -0.04    0.59 
   4  -1   3    0.77    0.48 
   4  -1   3    0.58    0.48 
   4  -1   3    0.63    0.57 
   4  -1   3    0.40    0.49 
   4  -1   3    0.33    0.39 
   4  -1   2   33.99    1.34 
   4  -1   2   40.21    1.50 
   4  -1   2   30.50    1.27 
   4  -1   2   37.47    1.56 
   4  -1   2   31.02    1.20 
   4  -1   2   27.66    1.11 
   4  -1   1   69.08    2.06 
   4  -1   1   66.14    1.84 
   4  -1   0   18.72    1.07 
   4  -1  -3   15.11    0.85 
   4  -1  -4   -0.07    0.75 
   4  -1  -4    3.09    0.94 
   4  -1  -5   -0.19    0.93 
   4  -1  -5    0.03    0.88 
   4  -1  -6    0.69    1.16 
   4  -1  -6    1.31    1.10 
   4  -1  -6    1.20    1.12 
   4  -1  -7    1.50    1.22 
   4  -1  -7   -0.43    1.22 
   4  -1  -8    0.78    1.21 
   4  -2  11    1.35    0.18 
   4  -2  10    0.07    0.22 
   4  -2  10   -0.02    0.23 
   4  -2   9   -0.03    0.18 
   4  -2   9    0.04    0.25 
   4  -2   9    0.24    0.26 
   4  -2   9   -0.01    0.16 
   4  -2   9   -0.01    0.38 
   4  -2   9    0.52    0.65 
   4  -2   9   -0.22    0.48 
   4  -2   9   -0.14    0.27 
   4  -2   8    0.02    0.88 
   4  -2   8    1.03    0.66 
   4  -2   8    3.56    0.61 
   4  -2   8    3.46    0.36 
   4  -2   8    4.43    0.39 
   4  -2   8    4.68    0.38 
   4  -2   8    3.79    0.28 
   4  -2   8    3.54    0.51 
   4  -2   8    3.13    0.49 
   4  -2   8    3.68    0.62 
   4  -2   8    4.37    0.67 
   4  -2   7    7.70    0.43 
   4  -2   7    8.17    0.47 
   4  -2   7    8.69    0.46 
   4  -2   7    8.19    0.77 
   4  -2   7    7.42    0.74 
   4  -2   7    7.78    0.76 
   4  -2   7    8.60    0.80 
   4  -2   7    6.84    0.66 
   4  -2   7    7.75    0.79 
   4  -2   7    6.90    0.69 
   4  -2   7    8.41    0.91 
   4  -2   6   26.89    0.73 
   4  -2   6   30.69    0.78 
   4  -2   6   31.09    0.78 
   4  -2   6   25.77    1.35 
   4  -2   6   30.06    1.41 
   4  -2   6   28.82    1.38 
   4  -2   6   26.19    1.14 
   4  -2   6   31.03    1.56 
   4  -2   6   28.55    1.25 
   4  -2   6   32.06    1.33 
   4  -2   6   26.57    1.15 
   4  -2   5   11.97    0.49 
   4  -2   5   11.89    0.48 
   4  -2   5    9.75    0.94 
   4  -2   5    9.23    0.81 
   4  -2   5   10.05    0.76 
   4  -2   5    9.60    0.74 
   4  -2   5   12.71    1.10 
   4  -2   5   10.96    0.82 
   4  -2   5   12.32    0.88 
   4  -2   4    3.49    0.58 
   4  -2   4    4.12    0.68 
   4  -2   4    3.46    0.53 
   4  -2   4    3.93    0.80 
   4  -2   4    3.79    0.54 
   4  -2   4    4.14    0.72 
   4  -2   4    3.65    0.63 
   4  -2   3    3.31    0.55 
   4  -2   3    3.01    0.50 
   4  -2   3    3.98    0.71 
   4  -2   3    3.17    0.73 
   4  -2   3    2.87    0.53 
   4  -2   3    3.25    0.75 
   4  -2   2   19.92    0.89 
   4  -2   2   22.34    1.25 
   4  -2   2   21.38    1.01 
   4  -2   2   22.84    1.23 
   4  -2   1    1.60    0.45 
   4  -2   1    2.53    0.64 
   4  -2   1    2.98    0.70 
   4  -2   0    0.82    0.61 
   4  -2   0    0.56    0.58 
   4  -2  -1    1.09    0.66 
   4  -2  -1    0.53    0.58 
   4  -2  -2    0.55    0.57 
   4  -2  -2    0.40    0.55 
   4  -2  -3   -0.33    0.63 
   4  -2  -3   -0.28    0.65 
   4  -2  -3    0.39    0.46 
   4  -2  -3   -0.23    0.63 
   4  -2  -4   -0.24    0.79 
   4  -2  -4   -0.20    0.80 
   4  -2  -4    0.51    0.55 
   4  -2  -4   -0.03    0.76 
   4  -2  -5    0.16    0.69 
   4  -2  -5    0.65    0.70 
   4  -2  -5    1.02    0.92 
   4  -2  -5   -0.35    0.85 
   4  -2  -5   -0.91    0.94 
   4  -2  -6   -0.04    1.08 
   4  -2  -7    0.05    1.36 
   4  -2  -8    0.61    1.24 
   4  -3  10    0.33    0.28 
   4  -3   9    0.59    0.15 
   4  -3   9    0.70    0.18 
   4  -3   9    0.70    0.24 
   4  -3   9    0.70    0.24 
   4  -3   9    0.93    0.38 
   4  -3   9   -0.06    0.65 
   4  -3   9    0.45    0.46 
   4  -3   9    1.38    0.44 
   4  -3   8    0.07    0.23 
   4  -3   8    0.35    0.26 
   4  -3   8    0.53    0.28 
   4  -3   8    0.39    0.20 
   4  -3   8    0.16    0.30 
   4  -3   8    0.27    0.45 
   4  -3   8    0.37    0.40 
   4  -3   7    2.97    0.50 
   4  -3   7    3.03    0.52 
   4  -3   7    3.53    0.57 
   4  -3   7    3.11    0.58 
   4  -3   7    3.38    0.35 
   4  -3   7    3.57    0.34 
   4  -3   6   22.74    1.11 
   4  -3   6   21.49    1.06 
   4  -3   6   18.86    1.08 
   4  -3   6   20.51    1.18 
   4  -3   6   19.91    1.21 
   4  -3   6   20.12    1.16 
   4  -3   6   24.60    0.67 
   4  -3   6   24.78    0.66 
   4  -3   5    3.26    0.35 
   4  -3   5    3.08    0.34 
   4  -3   5    2.23    0.62 
   4  -3   5    2.33    0.64 
   4  -3   5    1.74    0.61 
   4  -3   5    2.71    0.78 
   4  -3   5    2.64    0.71 
   4  -3   5    3.04    0.61 
   4  -3   5    2.27    0.52 
   4  -3   4    0.40    0.26 
   4  -3   4    0.37    0.27 
   4  -3   4    0.18    0.49 
   4  -3   4   -0.16    0.59 
   4  -3   4    0.02    0.48 
   4  -3   4   -0.07    0.64 
   4  -3   4    0.04    0.61 
   4  -3   4    0.07    0.49 
   4  -3   4    0.10    0.43 
   4  -3   3    8.65    0.41 
   4  -3   3    8.99    0.40 
   4  -3   3    8.12    0.91 
   4  -3   3    9.31    0.76 
   4  -3   3    8.05    0.94 
   4  -3   3    9.04    0.69 
   4  -3   3    7.46    0.96 
   4  -3   2   22.23    1.33 
   4  -3   2   19.33    1.27 
   4  -3   2   21.09    1.04 
   4  -3   1   17.00    1.21 
   4  -3   1   19.44    1.24 
   4  -3   0   88.41    2.56 
   4  -3  -1  125.47    3.30 
   4  -3  -1  116.40    3.26 
   4  -3  -2    1.77    0.88 
   4  -3  -2    1.88    0.79 
   4  -3  -3    0.02    0.72 
   4  -3  -3   -0.07    0.50 
   4  -3  -3    0.45    0.85 
   4  -3  -3    0.03    0.79 
   4  -3  -4   -0.03    0.86 
   4  -3  -4    0.70    0.81 
   4  -3  -4   -0.04    0.58 
   4  -3  -4    0.82    0.98 
   4  -3  -4    0.10    0.88 
   4  -3  -5    0.51    1.04 
   4  -3  -5    0.65    0.96 
   4  -3  -5    8.13    1.48 
   4  -3  -5    6.22    1.34 
   4  -3  -6    4.43    0.92 
   4  -3  -6    2.92    0.91 
   4  -4  10    1.02    0.18 
   4  -4   9    0.06    0.49 
   4  -4   9    0.05    0.36 
   4  -4   9    0.33    0.13 
   4  -4   8    1.84    0.19 
   4  -4   8    1.76    0.40 
   4  -4   8    1.55    0.24 
   4  -4   8    1.91    0.24 
   4  -4   7    0.74    0.26 
   4  -4   7    0.68    0.27 
   4  -4   7    0.64    0.73 
   4  -4   7    0.54    0.45 
   4  -4   7    0.63    0.36 
   4  -4   7    0.48    0.42 
   4  -4   6    0.05    0.37 
   4  -4   6    0.06    0.42 
   4  -4   6   -0.23    0.37 
   4  -4   6   -0.21    0.47 
   4  -4   6    0.36    0.23 
   4  -4   6   -0.30    0.26 
   4  -4   6   -0.21    0.26 
   4  -4   5    5.17    0.75 
   4  -4   5    5.11    0.77 
   4  -4   5    5.40    0.67 
   4  -4   5    5.11    0.67 
   4  -4   5    6.89    0.68 
   4  -4   5    7.43    0.35 
   4  -4   5    6.50    0.37 
   4  -4   4    0.43    0.25 
   4  -4   4    0.32    0.61 
   4  -4   4    0.50    0.48 
   4  -4   4    0.13    0.45 
   4  -4   4   -0.18    0.59 
   4  -4   4   -0.23    0.46 
   4  -4   3    1.53    0.28 
   4  -4   3    1.38    0.66 
   4  -4   3    1.56    0.48 
   4  -4   3    0.83    0.67 
   4  -4   2    9.71    1.10 
   4  -4   2   11.43    1.10 
   4  -4   1    3.04    0.87 
   4  -4   1    4.04    0.91 
   4  -4   0   32.27    1.66 
   4  -4   0   29.46    1.65 
   4  -4  -2    4.65    0.70 
   4  -4  -2    3.57    0.97 
   4  -4  -2    3.56    0.93 
   4  -4  -3    2.59    0.65 
   4  -4  -3    3.90    1.09 
   4  -4  -3    3.48    1.01 
   4  -4  -3    4.37    1.32 
   4  -4  -4    2.54    0.71 
   4  -4  -4    3.30    1.15 
   4  -4  -4    1.79    1.00 
   4  -4  -5    0.11    0.75 
   4  -4  -5    0.35    0.74 
   4  -4  -6    6.83    1.02 
   4  -4  -6    5.82    1.02 
   4  -5   8    0.30    0.33 
   4  -5   7    0.98    0.18 
   4  -5   7    0.53    0.28 
   4  -5   7    1.18    0.61 
   4  -5   7    0.92    0.16 
   4  -5   7    0.80    0.21 
   4  -5   6    3.93    0.29 
   4  -5   6    3.51    0.24 
   4  -5   5    1.15    0.22 
   4  -5   5    1.01    0.24 
   4  -5   5    0.30    0.49 
   4  -5   5    0.85    0.47 
   4  -5   4    1.98    0.25 
   4  -5   4    2.11    0.29 
   4  -5   4    1.07    0.44 
   4  -5   4    1.55    0.58 
   4  -5   4    1.40    0.43 
   4  -5   4    1.83    0.51 
   4  -5   4    1.25    0.58 
   4  -5   3    1.25    0.28 
   4  -5   3    0.72    0.58 
   4  -5   3    1.21    0.25 
   4  -5   3    1.36    0.52 
   4  -5   3    0.63    0.57 
   4  -5   2    2.25    0.31 
   4  -5   2    2.14    0.27 
   4  -5   2    0.79    0.63 
   4  -5   2    3.09    0.62 
   4  -5   2    1.16    0.63 
   4  -5   1    0.48    0.71 
   4  -5   1    1.95    0.57 
   4  -5   1    0.75    0.69 
   4  -5   0    7.02    0.99 
   4  -5   0    7.07    0.96 
   4  -5  -1   10.25    1.20 
   4  -5  -1   12.94    1.19 
   4  -5  -2    0.47    0.50 
   4  -5  -2   -0.39    0.66 
   4  -5  -3    0.08    0.48 
   4  -5  -5    0.45    0.66 
   4  -5  -5    0.45    0.68 
   4  -6   7   -0.06    0.11 
   4  -6   6    0.72    0.29 
   4  -6   6    0.48    0.16 
   4  -6   6    0.01    0.15 
   4  -6   6    0.04    0.16 
   4  -6   6    0.50    0.19 
   4  -6   6    0.40    0.14 
   4  -6   5    1.78    0.22 
   4  -6   5    1.48    0.18 
   4  -6   4    0.98    0.22 
   4  -6   4    1.10    0.38 
   4  -6   4    1.02    0.27 
   4  -6   4    0.63    0.18 
   4  -6   3    0.63    0.21 
   4  -6   3    0.41    0.30 
   4  -6   3    0.46    0.45 
   4  -6   3    0.57    0.39 
   4  -6   2    4.95    0.72 
   4  -6   2    7.48    0.43 
   4  -6   2    3.76    0.65 
   4  -6   2    7.03    0.64 
   4  -6   1    7.45    0.43 
   4  -6   1    6.59    0.63 
   4  -6   0    0.22    0.42 
   4  -6   0    0.28    0.30 
   4  -6   0   -0.19    0.58 
   4  -6  -1    0.53    0.26 
   4  -6  -1    0.40    0.27 
   4  -6  -1    0.40    0.58 
   4  -6  -1    0.24    0.44 
   4  -6  -2   -0.05    0.42 
   4  -6  -2    0.37    0.46 
   4  -6  -3    0.08    0.41 
   4  -6  -3   -0.31    0.34 
   4  -6  -4   -0.17    0.32 
   4  -6  -5    1.37    0.41 
   4  -7   5    0.38    0.24 
   4  -7   4   -0.12    0.18 
   4  -7   3   -0.18    0.21 
   4  -7   3    0.01    0.18 
   4  -7   3    0.02    0.18 
   4  -7   2   -0.11    0.22 
   4  -7   2    0.09    0.19 
   4  -7   2    0.01    0.20 
   4  -7   1    0.09    0.22 
   4  -7   1    0.01    0.20 
   4  -7   1    0.11    0.21 
   4  -7   0    0.25    0.34 
   4  -7   0    0.30    0.20 
   4  -7   0    0.08    0.21 
   4  -7  -1   -0.23    0.35 
   4  -7  -2    0.81    0.30 
   4  -7  -3    0.31    0.26 
   5   8   4    0.74    0.75 
   5   8   3    1.19    0.85 
   5   8   2    0.30    0.33 
   5   8   2   -0.30    0.32 
   5   8   2   -0.33    0.22 
   5   8   2   -0.05    0.22 
   5   8   1    0.39    0.35 
   5   8   1   -0.18    0.34 
   5   8   1   -0.14    0.24 
   5   8   1    0.27    0.25 
   5   8   0   -0.05    0.35 
   5   8   0   -0.16    0.34 
   5   8   0    0.05    0.24 
   5   8   0    0.20    0.26 
   5   8  -1    0.14    0.33 
   5   8  -1    0.17    0.32 
   5   8  -4    0.03    0.31 
   5   7   7    0.47    0.52 
   5   7   7    0.32    0.52 
   5   7   6    0.59    0.73 
   5   7   5    0.55    0.91 
   5   7   5    0.29    0.84 
   5   7   5    0.13    0.22 
   5   7   5    0.15    0.33 
   5   7   5    0.38    0.33 
   5   7   4    1.73    1.00 
   5   7   4    0.14    0.91 
   5   7   4    0.09    0.24 
   5   7   4    0.45    0.27 
   5   7   4    0.09    0.26 
   5   7   4    0.75    0.39 
   5   7   4    0.86    0.39 
   5   7   3    0.65    1.05 
   5   7   3    0.22    0.98 
   5   7   3   -0.17    0.28 
   5   7   3   -0.25    0.32 
   5   7   3   -0.12    0.30 
   5   7   3    0.15    0.29 
   5   7   3    0.21    0.45 
   5   7   3   -0.03    0.44 
   5   7   2    0.23    1.08 
   5   7   2   -0.08    1.02 
   5   7   2    0.15    0.32 
   5   7   2    0.21    0.35 
   5   7   2    0.10    0.33 
   5   7   2   -0.29    0.68 
   5   7   1    1.01    1.14 
   5   7   1   -0.03    0.75 
   5   7   0   -0.16    0.77 
   5   7   0   -0.16    0.57 
   5   7   0    0.49    0.57 
   5   7  -1    0.15    0.56 
   5   7  -1    0.15    0.55 
   5   7  -1   -0.03    0.74 
   5   7  -1    0.30    0.42 
   5   7  -1   -0.01    0.40 
   5   7  -1    0.17    0.42 
   5   7  -2    0.26    0.54 
   5   7  -2    0.58    0.55 
   5   7  -2    0.15    0.39 
   5   7  -2   -0.12    0.75 
   5   7  -3    0.50    0.52 
   5   7  -3    0.48    0.49 
   5   7  -3    0.27    0.49 
   5   7  -3    0.37    0.46 
   5   7  -3    0.08    0.36 
   5   7  -4    0.48    0.48 
   5   7  -4    0.15    0.43 
   5   7  -4   -0.14    0.33 
   5   7  -4    0.07    0.35 
   5   7  -5    0.55    0.63 
   5   6   8   -0.08    0.56 
   5   6   8    0.03    0.54 
   5   6   7    2.19    0.88 
   5   6   6    0.22    0.34 
   5   6   6    0.09    0.33 
   5   6   6    0.13    0.28 
   5   6   6    0.02    0.23 
   5   6   5    1.14    0.66 
   5   6   5    1.28    0.46 
   5   6   5   -0.08    0.39 
   5   6   5    1.63    0.46 
   5   6   5    0.73    0.26 
   5   6   5    1.10    0.30 
   5   6   5    0.44    0.35 
   5   6   5    0.78    0.27 
   5   6   4    0.26    0.72 
   5   6   4   -0.40    0.72 
   5   6   4   -0.11    0.52 
   5   6   4   -0.26    0.52 
   5   6   4   -0.33    0.30 
   5   6   4   -0.08    0.41 
   5   6   4    0.26    0.33 
   5   6   4   -0.02    0.30 
   5   6   3    0.30    0.61 
   5   6   3    0.35    0.60 
   5   6   3    0.59    0.35 
   5   6   3    0.83    0.41 
   5   6   3    0.56    0.37 
   5   6   3    0.49    0.87 
   5   6   3    0.39    0.82 
   5   6   3    0.80    0.62 
   5   6   2   -0.20    0.68 
   5   6   2    0.43    0.71 
   5   6   2    0.49    0.68 
   5   6   2    0.20    0.68 
   5   6   2    0.06    0.44 
   5   6   2    0.23    0.85 
   5   6   2    0.05    1.12 
   5   6   1    0.38    0.49 
   5   6   1    0.39    0.49 
   5   6   1   -0.10    0.49 
   5   6   1   -0.65    0.80 
   5   6   1    0.13    0.75 
   5   6   1    1.07    0.77 
   5   6   1    0.38    0.72 
   5   6   1   -0.19    0.92 
   5   6   0    0.03    0.52 
   5   6   0    0.24    0.53 
   5   6   0    0.01    0.54 
   5   6   0   -0.04    0.90 
   5   6  -1    0.66    0.59 
   5   6  -1    0.06    0.60 
   5   6  -1   -0.13    0.56 
   5   6  -1   -0.29    0.63 
   5   6  -1    1.18    1.18 
   5   6  -1   -0.36    0.80 
   5   6  -1   -0.15    0.90 
   5   6  -2    0.22    0.55 
   5   6  -2    0.37    0.58 
   5   6  -2    0.53    0.63 
   5   6  -2    1.07    0.73 
   5   6  -2    0.55    1.07 
   5   6  -2   -0.20    0.92 
   5   6  -3   -0.01    0.52 
   5   6  -3   -0.10    0.40 
   5   6  -3    0.15    0.40 
   5   6  -3    0.98    0.56 
   5   6  -3    0.57    0.63 
   5   6  -3    0.15    0.70 
   5   6  -3   -0.34    0.98 
   5   6  -3    0.19    0.88 
   5   6  -4   -0.50    0.72 
   5   6  -4    0.22    0.89 
   5   6  -4    0.01    0.40 
   5   6  -4    0.04    0.40 
   5   6  -4   -0.94    0.67 
   5   6  -5    0.20    0.43 
   5   6  -5    0.10    0.37 
   5   6  -5   -0.06    0.38 
   5   6  -5    0.92    0.47 
   5   6  -5   -0.95    0.68 
   5   6  -6   -0.49    0.46 
   5   6  -6    0.64    0.75 
   5   6  -6   -0.49    0.54 
   5   5   7    8.70    0.45 
   5   5   7    8.67    0.45 
   5   5   7   10.71    0.40 
   5   5   7   10.90    0.45 
   5   5   6    0.10    0.38 
   5   5   6    0.54    0.43 
   5   5   6   -0.03    0.39 
   5   5   6   -0.08    0.26 
   5   5   6    0.04    0.35 
   5   5   6   -0.09    0.57 
   5   5   6   -0.08    0.66 
   5   5   5   20.48    0.78 
   5   5   5   29.66    0.81 
   5   5   5   19.16    0.89 
   5   5   5   21.64    0.92 
   5   5   5   12.91    1.21 
   5   5   5    9.75    1.35 
   5   5   5   21.21    1.61 
   5   5   4    0.30    0.31 
   5   5   4    0.75    0.38 
   5   5   4    0.40    0.32 
   5   5   4    0.03    0.82 
   5   5   4   -0.11    0.64 
   5   5   4    0.46    0.90 
   5   5   4    0.43    0.59 
   5   5   4    0.47    0.58 
   5   5   4    0.59    0.53 
   5   5   4    0.88    0.79 
   5   5   3    0.97    0.88 
   5   5   3    0.29    0.58 
   5   5   3    0.17    0.42 
   5   5   3    0.31    1.01 
   5   5   3   -0.45    0.92 
   5   5   3    0.48    0.87 
   5   5   3    1.03    0.69 
   5   5   3    0.32    0.66 
   5   5   3    0.63    0.40 
   5   5   2   -0.03    0.96 
   5   5   2   -0.15    0.79 
   5   5   2    0.34    0.47 
   5   5   2    0.06    0.51 
   5   5   2    0.08    0.47 
   5   5   2   -1.73    1.29 
   5   5   2   -0.92    1.06 
   5   5   2    0.42    0.74 
   5   5   2    0.39    0.93 
   5   5   2    1.13    0.80 
   5   5   2   -0.11    0.75 
   5   5   2    0.16    0.36 
   5   5   2    0.57    0.41 
   5   5   1   -0.08    0.53 
   5   5   1    0.25    0.56 
   5   5   1    0.13    0.54 
   5   5   1    0.27    0.38 
   5   5   1   -0.16    0.39 
   5   5   1    0.10    1.23 
   5   5   1   -0.31    0.88 
   5   5   1    0.32    0.81 
   5   5   1   -0.08    0.99 
   5   5   0    1.74    0.69 
   5   5   0    1.85    0.69 
   5   5   0    4.54    0.57 
   5   5   0    4.08    0.52 
   5   5   0    1.57    1.45 
   5   5   0    0.99    1.13 
   5   5   0    1.88    1.22 
   5   5  -1    1.43    0.52 
   5   5  -1    0.51    1.11 
   5   5  -1    0.32    1.11 
   5   5  -1    0.99    0.69 
   5   5  -1    1.62    0.72 
   5   5  -1    0.40    0.71 
   5   5  -1    0.13    0.81 
   5   5  -2    2.05    1.25 
   5   5  -2    0.09    1.13 
   5   5  -3    0.56    0.53 
   5   5  -3    0.70    0.52 
   5   5  -3    0.66    1.12 
   5   5  -3    0.22    0.88 
   5   5  -3    0.66    1.01 
   5   5  -3    1.37    0.68 
   5   5  -4   -0.71    0.56 
   5   5  -4    0.11    0.57 
   5   5  -4   10.08    1.18 
   5   5  -4   16.10    2.49 
   5   5  -4    0.04    1.06 
   5   5  -4    9.28    1.08 
   5   5  -5   16.78    1.23 
   5   5  -5   14.97    1.12 
   5   5  -6    4.95    0.83 
   5   5  -6    5.03    0.92 
   5   5  -7   -0.46    0.43 
   5   4   9    0.46    0.49 
   5   4   8    0.16    0.32 
   5   4   8   -0.03    0.57 
   5   4   7    1.38    0.68 
   5   4   7    0.52    0.41 
   5   4   6    0.70    0.69 
   5   4   6    0.15    0.34 
   5   4   6   -0.18    0.34 
   5   4   6    0.31    0.59 
   5   4   6   -0.28    0.54 
   5   4   6    0.24    0.38 
   5   4   6    0.22    0.37 
   5   4   6    0.31    0.25 
   5   4   5   19.16    1.45 
   5   4   5   21.28    1.57 
   5   4   5   19.57    0.85 
   5   4   5   19.73    0.86 
   5   4   4    0.39    0.90 
   5   4   4    0.57    0.37 
   5   4   4    0.12    0.74 
   5   4   4   -0.26    0.89 
   5   4   4    0.14    0.57 
   5   4   4    0.19    0.56 
   5   4   3    0.34    0.96 
   5   4   3   -0.26    0.60 
   5   4   3    0.06    0.40 
   5   4   3   -0.07    0.34 
   5   4   3    0.11    0.40 
   5   4   3    0.46    0.75 
   5   4   3   -0.34    1.00 
   5   4   3    0.77    0.66 
   5   4   3    0.16    0.64 
   5   4   2    3.49    0.58 
   5   4   2    2.50    0.54 
   5   4   2    3.27    0.58 
   5   4   2    6.33    0.55 
   5   4   2    7.15    0.65 
   5   4   2    4.01    1.05 
   5   4   2    5.49    1.01 
   5   4   2    2.63    1.39 
   5   4   1    3.18    0.68 
   5   4   1    2.33    0.64 
   5   4   1    2.19    0.65 
   5   4   1    2.99    1.00 
   5   4   1    2.74    1.08 
   5   4   1    5.68    0.56 
   5   4   1    2.69    1.49 
   5   4   0   -0.15    1.08 
   5   4   0    0.74    0.45 
   5   4   0    0.85    0.42 
   5   4   0    1.91    1.18 
   5   4  -1    0.04    1.10 
   5   4  -1    2.61    1.39 
   5   4  -1   -0.49    0.83 
   5   4  -1    2.33    0.45 
   5   4  -2    0.29    1.12 
   5   4  -2    0.17    1.14 
   5   4  -3    5.16    0.75 
   5   4  -3    0.42    2.33 
   5   4  -3    0.22    1.15 
   5   4  -3    4.45    0.67 
   5   4  -3    4.48    0.68 
   5   4  -3    4.92    2.24 
   5   4  -4   -0.48    1.19 
   5   4  -4    7.10    0.76 
   5   4  -4    6.10    0.78 
   5   4  -4    0.60    2.33 
   5   4  -5   17.30    0.98 
   5   4  -5   18.57    1.00 
   5   4  -6   45.43    1.25 
   5   4  -6   49.22    1.28 
   5   4  -6    0.69    1.02 
   5   4  -6   69.92    4.27 
   5   4  -6    3.21    0.75 
   5   4  -7   44.29    1.16 
   5   4  -7   41.45    1.16 
   5   4  -8   20.58    1.11 
   5   4  -8   12.18    0.89 
   5   3   9    1.05    0.54 
   5   3   9    2.07    0.25 
   5   3   8    1.45    0.30 
   5   3   8    1.94    0.31 
   5   3   8    7.84    0.40 
   5   3   8    2.54    0.63 
   5   3   8    7.26    0.79 
   5   3   7    0.27    0.62 
   5   3   7    0.58    0.35 
   5   3   7    0.19    0.34 
   5   3   7    0.20    0.36 
   5   3   7    0.13    0.48 
   5   3   7    1.14    0.65 
   5   3   7    0.40    0.51 
   5   3   7   -0.14    0.63 
   5   3   6   25.62    0.77 
   5   3   6   21.18    1.52 
   5   3   6   12.63    1.23 
   5   3   6   18.53    1.20 
   5   3   6   23.22    1.43 
   5   3   6   17.21    0.98 
   5   3   6   19.89    1.03 
   5   3   5    0.72    0.42 
   5   3   5    0.48    0.40 
   5   3   5    1.19    0.46 
   5   3   5    0.94    0.28 
   5   3   5    0.46    0.68 
   5   3   5    0.26    0.72 
   5   3   5    0.99    0.89 
   5   3   5    0.76    0.45 
   5   3   5    0.91    0.42 
   5   3   5    0.18    0.40 
   5   3   5    0.37    0.70 
   5   3   5    1.05    0.80 
   5   3   4   32.09    0.86 
   5   3   4   22.87    1.73 
   5   3   4   24.88    1.77 
   5   3   4   28.62    1.67 
   5   3   4   31.63    1.90 
   5   3   4   30.11    1.22 
   5   3   4   31.39    1.22 
   5   3   4   16.86    0.92 
   5   3   4   18.06    0.94 
   5   3   3    0.02    0.35 
   5   3   3   -0.03    0.91 
   5   3   3   -1.10    0.99 
   5   3   3    0.47    0.43 
   5   3   3    0.22    0.72 
   5   3   3    0.33    0.83 
   5   3   3    0.03    0.58 
   5   3   3    0.17    0.57 
   5   3   2    0.57    0.42 
   5   3   2    1.12    0.44 
   5   3   2    0.91    0.44 
   5   3   2    0.57    1.07 
   5   3   2    1.95    0.49 
   5   3   2    2.05    0.90 
   5   3   2    1.08    0.95 
   5   3   2    1.11    0.67 
   5   3   1    8.30    0.77 
   5   3   1    6.56    0.73 
   5   3   1    9.51    1.50 
   5   3   1    9.22    1.25 
   5   3   1    7.84    1.70 
   5   3   0    2.91    1.08 
   5   3   0    2.71    1.31 
   5   3  -1   30.77    1.11 
   5   3  -1   31.04    1.07 
   5   3  -1   16.22    1.79 
   5   3  -1   -0.82    1.20 
   5   3  -1    5.84    1.35 
   5   3  -2    0.31    1.10 
   5   3  -2    0.41    0.51 
   5   3  -3   -0.28    0.52 
   5   3  -4    0.29    0.63 
   5   3  -4    0.63    0.83 
   5   3  -5   -0.12    0.82 
   5   3  -7   12.50    1.06 
   5   3  -8   86.73    1.64 
   5   3  -8   91.39    1.68 
   5   2  10    1.27    0.39 
   5   2   9    0.06    0.23 
   5   2   9    0.19    0.22 
   5   2   9    0.31    0.22 
   5   2   9    0.45    0.51 
   5   2   9    0.20    0.29 
   5   2   8    5.36    0.45 
   5   2   8    2.46    0.36 
   5   2   8    3.11    0.36 
   5   2   8    9.23    0.40 
   5   2   8    7.12    0.69 
   5   2   8    8.88    0.83 
   5   2   8    5.79    0.67 
   5   2   8    1.64    0.63 
   5   2   7   12.35    0.51 
   5   2   7   12.60    1.01 
   5   2   7    7.95    0.91 
   5   2   7    8.62    0.74 
   5   2   7    8.99    0.75 
   5   2   7    8.05    0.87 
   5   2   7    6.83    0.54 
   5   2   6    4.57    0.89 
   5   2   6    3.75    0.44 
   5   2   6    3.58    0.59 
   5   2   6    3.42    0.58 
   5   2   6    3.12    0.80 
   5   2   6    3.45    0.82 
   5   2   6    4.01    0.77 
   5   2   6    3.75    0.74 
   5   2   6    3.02    0.52 
   5   2   5    6.84    1.14 
   5   2   5    6.94    0.56 
   5   2   5    8.86    0.78 
   5   2   5    9.20    0.80 
   5   2   5    6.19    1.09 
   5   2   5    5.80    1.01 
   5   2   5    5.94    0.83 
   5   2   5    6.58    1.01 
   5   2   5    8.43    0.75 
   5   2   4   -0.17    0.43 
   5   2   4    0.49    0.41 
   5   2   4    0.22    0.40 
   5   2   4    0.18    0.65 
   5   2   4    0.02    0.81 
   5   2   4    0.46    0.76 
   5   2   4    0.60    0.92 
   5   2   3    5.12    0.62 
   5   2   3    2.34    0.99 
   5   2   3    2.59    0.35 
   5   2   3    1.14    0.50 
   5   2   3    1.50    0.51 
   5   2   3    2.56    0.87 
   5   2   3    1.49    0.89 
   5   2   3    3.02    0.95 
   5   2   3    4.44    0.56 
   5   2   3    4.45    0.56 
   5   2   2    0.66    0.34 
   5   2   2    2.06    0.48 
   5   2   2    0.89    0.69 
   5   2   2    0.73    0.81 
   5   2   2    0.88    0.84 
   5   2   2    1.88    0.41 
   5   2   2    2.09    0.42 
   5   2   1    1.31    0.89 
   5   2   1    1.81    0.68 
   5   2   0    1.18    0.92 
   5   2   0    2.73    0.49 
   5   2   0    1.31    0.79 
   5   2  -1    2.63    0.46 
   5   2  -1    0.67    0.89 
   5   2  -2    1.96    1.20 
   5   2  -2    3.68    0.59 
   5   2  -3    1.04    0.56 
   5   2  -3   -0.86    1.13 
   5   2  -4    1.54    0.86 
   5   2  -4    1.94    0.62 
   5   2  -4    0.92    1.00 
   5   2  -5    0.36    0.84 
   5   2  -5    1.06    1.01 
   5   1  10    1.95    0.41 
   5   1  10    8.37    0.32 
   5   1   9    1.29    0.30 
   5   1   9    1.89    0.25 
   5   1   9    1.31    0.26 
   5   1   9    1.28    0.26 
   5   1   8   -0.06    0.51 
   5   1   8   -0.12    0.46 
   5   1   8    0.24    0.35 
   5   1   8    0.12    0.29 
   5   1   8    0.10    0.29 
   5   1   8   -0.05    0.27 
   5   1   8    0.06    0.45 
   5   1   8   -0.19    0.50 
   5   1   8   -0.95    0.61 
   5   1   7    6.71    0.51 
   5   1   7    6.64    0.83 
   5   1   7    6.59    0.65 
   5   1   7    9.12    0.43 
   5   1   7    7.21    0.71 
   5   1   7    7.04    0.71 
   5   1   7    7.45    0.80 
   5   1   7    8.79    0.84 
   5   1   7    7.14    0.85 
   5   1   6   26.64    1.36 
   5   1   6   25.95    1.21 
   5   1   6   26.21    1.42 
   5   1   6   28.05    0.72 
   5   1   6   23.60    1.09 
   5   1   6   26.69    1.30 
   5   1   6   26.66    1.28 
   5   1   6   28.17    1.34 
   5   1   6   24.59    1.37 
   5   1   5    9.68    0.81 
   5   1   5    8.81    1.10 
   5   1   5    8.68    0.50 
   5   1   5   10.14    0.87 
   5   1   5   10.32    0.88 
   5   1   5    9.87    0.81 
   5   1   5    8.78    0.94 
   5   1   5    7.65    0.90 
   5   1   5    8.15    0.97 
   5   1   4   12.04    1.20 
   5   1   4   12.75    0.55 
   5   1   4   15.82    0.92 
   5   1   4   11.32    1.06 
   5   1   4   10.63    1.08 
   5   1   4    9.45    1.07 
   5   1   4   15.08    1.00 
   5   1   4   16.53    1.00 
   5   1   3    1.61    0.50 
   5   1   3    2.01    0.51 
   5   1   3    1.91    0.48 
   5   1   3    1.73    0.66 
   5   1   3    1.26    0.69 
   5   1   3    0.99    0.77 
   5   1   3    0.75    0.66 
   5   1   2    0.52    0.38 
   5   1   2   -0.02    0.60 
   5   1   2   -0.02    0.64 
   5   1   2    0.02    0.44 
   5   1   2   -0.08    0.46 
   5   1   2   -0.07    0.62 
   5   1   1    6.58    0.62 
   5   1   1    7.09    0.61 
   5   1   1    7.30    0.64 
   5   1   0    9.83    1.22 
   5   1   0   22.05    0.97 
   5   1  -1   15.33    0.84 
   5   1  -1   11.01    1.22 
   5   1  -2    0.36    0.75 
   5   1  -3    0.88    0.79 
   5   1  -3   -0.03    0.51 
   5   1  -4    1.45    0.82 
   5   1  -4    0.60    0.83 
   5   1  -5    0.16    0.78 
   5   1  -5    0.56    0.87 
   5   0   9    1.46    0.28 
   5   0   8    0.25    0.23 
   5   0   8    0.49    0.46 
   5   0   8    0.03    0.44 
   5   0   8    0.47    0.31 
   5   0   7    2.46    0.39 
   5   0   7    3.10    0.56 
   5   0   7    3.21    0.62 
   5   0   7    1.53    0.38 
   5   0   7    2.01    0.38 
   5   0   7    2.95    0.55 
   5   0   7    2.85    0.55 
   5   0   7    2.48    0.58 
   5   0   7    2.43    0.62 
   5   0   7    2.68    0.30 
   5   0   7    2.65    0.62 
   5   0   6   11.98    0.88 
   5   0   6   12.04    0.98 
   5   0   6   12.49    0.98 
   5   0   6   11.08    0.92 
   5   0   6   12.75    0.46 
   5   0   6    8.81    0.54 
   5   0   6    9.69    0.78 
   5   0   6   11.41    0.91 
   5   0   6   12.03    0.93 
   5   0   6   12.01    0.92 
   5   0   5   35.92    1.40 
   5   0   5   32.52    1.56 
   5   0   5   38.49    1.57 
   5   0   5   36.08    1.57 
   5   0   5   37.96    0.79 
   5   0   5   35.61    1.35 
   5   0   5   35.25    1.48 
   5   0   5   38.82    1.58 
   5   0   5   40.48    1.58 
   5   0   4    6.74    0.79 
   5   0   4    6.49    0.77 
   5   0   4    4.89    0.36 
   5   0   4    6.43    0.82 
   5   0   4    5.70    0.83 
   5   0   4    5.56    0.64 
   5   0   4    4.95    0.75 
   5   0   4    4.71    0.70 
   5   0   4    5.02    0.81 
   5   0   3    1.87    0.29 
   5   0   3    1.03    0.61 
   5   0   3    1.52    0.59 
   5   0   3    1.36    0.56 
   5   0   3    2.61    0.61 
   5   0   3    2.62    0.60 
   5   0   3    2.70    0.64 
   5   0   3    1.66    0.68 
   5   0   2    1.05    0.56 
   5   0   2    1.00    0.58 
   5   0   2    0.58    0.51 
   5   0   2    1.31    0.68 
   5   0   2    2.00    0.60 
   5   0   2    2.10    0.53 
   5   0   2    2.15    0.53 
   5   0   1   13.96    1.02 
   5   0   1   11.32    1.07 
   5   0   1   26.32    1.14 
   5   0   1   23.45    1.08 
   5   0   0    0.29    0.60 
   5   0   0    0.32    0.72 
   5   0   0    1.99    0.45 
   5   0   0    1.89    0.45 
   5   0  -2    0.20    0.65 
   5  -1   9    0.26    0.27 
   5  -1   9    0.38    0.23 
   5  -1   9    0.33    0.21 
   5  -1   9    0.55    0.23 
   5  -1   8    1.62    0.29 
   5  -1   8    1.94    0.28 
   5  -1   8    1.43    0.46 
   5  -1   8    1.24    0.29 
   5  -1   7    1.98    0.34 
   5  -1   7    1.83    0.33 
   5  -1   7    1.81    0.34 
   5  -1   7    2.00    0.50 
   5  -1   7    2.05    0.54 
   5  -1   7    2.21    0.54 
   5  -1   7    2.78    0.53 
   5  -1   6    1.66    0.36 
   5  -1   6    2.37    0.37 
   5  -1   6    2.92    0.64 
   5  -1   6    2.86    0.56 
   5  -1   6    2.83    0.58 
   5  -1   6    2.28    0.55 
   5  -1   6    2.78    0.57 
   5  -1   6    2.74    0.63 
   5  -1   6    2.46    0.35 
   5  -1   5   24.46    0.71 
   5  -1   5   33.02    1.53 
   5  -1   5   30.86    1.26 
   5  -1   5   28.24    1.20 
   5  -1   5   32.71    1.34 
   5  -1   5   29.57    1.44 
   5  -1   5   30.31    1.43 
   5  -1   5   28.30    1.34 
   5  -1   5   30.94    1.26 
   5  -1   4    1.90    0.35 
   5  -1   4    3.32    0.74 
   5  -1   4    2.82    0.64 
   5  -1   4    3.12    0.57 
   5  -1   4    2.78    0.65 
   5  -1   4    3.12    0.65 
   5  -1   4    3.97    0.69 
   5  -1   3    0.98    0.61 
   5  -1   3    0.52    0.54 
   5  -1   3    0.40    0.48 
   5  -1   3    0.32    0.53 
   5  -1   3    0.76    0.52 
   5  -1   3    0.77    0.52 
   5  -1   2    6.11    0.70 
   5  -1   2    9.38    0.91 
   5  -1   2    6.15    0.76 
   5  -1   2    8.62    0.85 
   5  -1   2    8.31    0.79 
   5  -1   1   11.58    0.88 
   5  -1   1   18.64    1.15 
   5  -1   0    9.94    0.85 
   5  -1  -1   23.88    1.20 
   5  -1  -3   -0.18    0.67 
   5  -1  -3    0.92    0.70 
   5  -1  -4    0.14    0.76 
   5  -1  -4   -0.61    0.77 
   5  -1  -5   -0.63    0.91 
   5  -2   9    3.55    0.24 
   5  -2   9    3.04    0.19 
   5  -2   8    0.89    0.40 
   5  -2   8    0.84    0.24 
   5  -2   8    0.54    0.24 
   5  -2   8    0.57    0.39 
   5  -2   8    0.44    0.17 
   5  -2   7    4.72    0.35 
   5  -2   7    5.32    0.35 
   5  -2   7    5.26    0.59 
   5  -2   7    4.97    0.59 
   5  -2   7    5.19    0.64 
   5  -2   6    2.45    0.33 
   5  -2   6    2.64    0.32 
   5  -2   6    3.02    0.54 
   5  -2   6    2.85    0.58 
   5  -2   6    3.42    0.65 
   5  -2   5    0.10    0.29 
   5  -2   5    0.22    0.30 
   5  -2   5    0.49    0.59 
   5  -2   5   -0.30    0.54 
   5  -2   5   -0.16    0.49 
   5  -2   4   10.29    1.03 
   5  -2   4    8.48    0.78 
   5  -2   4    9.85    0.90 
   5  -2   4    8.61    0.90 
   5  -2   4    8.72    0.89 
   5  -2   4   10.26    0.85 
   5  -2   3    0.39    0.63 
   5  -2   3   -0.01    0.46 
   5  -2   3    0.40    0.56 
   5  -2   3    0.43    0.50 
   5  -2   3   -0.45    0.51 
   5  -2   2    1.39    0.64 
   5  -2   2    1.17    0.54 
   5  -2   2    0.80    0.67 
   5  -2   1   15.03    1.16 
   5  -2   1   13.11    0.88 
   5  -2   0    2.23    0.76 
   5  -2  -1   24.25    1.42 
   5  -2  -3    1.56    0.88 
   5  -2  -4    1.35    0.96 
   5  -2  -4    0.45    0.86 
   5  -3   8    0.27    0.16 
   5  -3   8   -0.02    0.20 
   5  -3   8   -0.06    0.20 
   5  -3   8    0.29    0.35 
   5  -3   7   -0.08    0.35 
   5  -3   7   -0.28    0.22 
   5  -3   7   -0.03    0.22 
   5  -3   6    2.03    0.23 
   5  -3   6    1.35    0.42 
   5  -3   6    1.81    0.49 
   5  -3   6    1.88    0.26 
   5  -3   6    1.69    0.26 
   5  -3   6    1.55    0.52 
   5  -3   5    6.24    0.65 
   5  -3   5    5.34    0.35 
   5  -3   5    6.13    0.36 
   5  -3   5    5.89    0.77 
   5  -3   4    1.52    0.27 
   5  -3   4    1.29    0.28 
   5  -3   4    1.80    0.59 
   5  -3   4    1.84    0.64 
   5  -3   4    1.77    0.55 
   5  -3   3    2.94    0.67 
   5  -3   3    3.03    0.72 
   5  -3   3    3.93    0.60 
   5  -3   3    2.59    0.58 
   5  -3   3    2.97    0.60 
   5  -3   2    3.39    0.70 
   5  -3   2    2.24    0.71 
   5  -3   1    7.69    0.89 
   5  -3   1    6.09    0.83 
   5  -3   0    2.57    0.73 
   5  -3   0    1.90    0.66 
   5  -3  -1    6.60    0.88 
   5  -3  -1    4.67    0.83 
   5  -3  -2   22.13    1.21 
   5  -3  -2   17.43    1.25 
   5  -4   8    0.02    0.26 
   5  -4   7    0.27    0.14 
   5  -4   7    0.00    0.16 
   5  -4   6    0.12    0.16 
   5  -4   6    0.44    0.20 
   5  -4   6    0.20    0.33 
   5  -4   5    1.77    0.42 
   5  -4   5    2.40    0.24 
   5  -4   5    1.96    0.51 
   5  -4   4    4.15    0.58 
   5  -4   4    4.26    0.58 
   5  -4   4    4.84    0.69 
   5  -4   3    5.07    0.30 
   5  -4   3    2.38    0.63 
   5  -4   2    0.61    0.55 
   5  -4   2    0.23    0.52 
   5  -4   1    7.42    0.85 
   5  -4   0    4.67    0.81 
   5  -4  -1    0.35    0.60 
   5  -4  -2   -0.07    0.62 
   5  -5   6    0.22    0.18 
   5  -5   6    0.24    0.14 
   5  -5   5    1.10    0.19 
   5  -5   5    1.01    0.16 
   5  -5   5    0.79    0.29 
   5  -5   4    1.22    0.21 
   5  -5   4    1.32    0.18 
   5  -5   4    0.69    0.35 
   5  -5   3    0.49    0.21 
   5  -5   3    0.45    0.37 
   5  -5   2    0.12    0.39 
   5  -5   2   -0.23    0.43 
   5  -5   1   -0.21    0.38 
   5  -5   1   -0.12    0.45 
   5  -5  -1    0.84    0.41 
   5  -5  -2    0.49    0.40 
   5  -6   5    0.21    0.30 
   5  -6   4    0.41    0.17 
   5  -6   3    0.68    0.21 
   5  -6   2    0.09    0.22 
   5  -6   1    0.06    0.21 
   5  -6   0    0.30    0.20 
   5  -6   0    0.15    0.20 
   5  -6  -2    0.94    0.26 
   6   7   5    0.44    0.51 
   6   7   4    2.66    0.71 
   6   7   3    0.33    0.74 
   6   7   3    0.09    0.28 
   6   7   3   -0.08    0.28 
   6   7   2    0.46    0.73 
   6   7   2   -0.04    0.32 
   6   7   2    0.14    0.31 
   6   7   1   -0.19    0.36 
   6   7   1   -0.15    0.35 
   6   6   6    0.42    0.65 
   6   6   6    0.06    0.55 
   6   6   5    0.08    0.67 
   6   6   4    0.83    0.31 
   6   6   4    0.96    0.36 
   6   6   4    0.84    0.37 
   6   6   4    0.12    0.75 
   6   6   3    0.36    0.41 
   6   6   3    0.09    0.40 
   6   6   3    0.89    0.61 
   6   6   3    0.13    0.33 
   6   6   3    0.80    0.28 
   6   6   2    0.22    0.47 
   6   6   2   -0.13    0.46 
   6   6   2   -0.08    0.67 
   6   6   2    0.09    0.25 
   6   6   2    0.04    0.30 
   6   6   2    0.11    0.26 
   6   6   1    0.68    0.54 
   6   6   1    0.51    0.52 
   6   6   1    0.21    0.74 
   6   6   1    0.54    0.34 
   6   6   0    0.68    0.55 
   6   6   0    0.46    0.55 
   6   6   0    0.35    0.77 
   6   6   0    0.28    0.34 
   6   6   0   -0.25    0.35 
   6   6   0    0.17    0.36 
   6   6  -1   -0.10    0.35 
   6   6  -1   -0.21    0.35 
   6   6  -1   -0.01    0.37 
   6   6  -1    0.09    0.53 
   6   6  -1    0.58    0.54 
   6   6  -2    0.10    0.34 
   6   6  -2    0.07    0.35 
   6   6  -2   -0.23    0.36 
   6   6  -3   -0.25    0.34 
   6   6  -3    0.09    0.31 
   6   6  -3   -0.25    0.34 
   6   5   8    0.07    0.36 
   6   5   6   -0.05    0.29 
   6   5   5    2.06    0.35 
   6   5   5    2.08    0.35 
   6   5   4    0.11    0.59 
   6   5   4    0.39    0.25 
   6   5   4    0.20    0.39 
   6   5   4    0.35    0.39 
   6   5   3    5.16    0.45 
   6   5   3    2.84    0.80 
   6   5   3    4.92    1.02 
   6   5   3    3.07    0.56 
   6   5   3    2.17    0.53 
   6   5   2   -0.17    0.36 
   6   5   2   -0.33    0.79 
   6   5   2   -0.53    0.85 
   6   5   2    0.14    0.57 
   6   5   2    0.25    0.56 
   6   5   1    0.12    0.36 
   6   5   1   -0.03    0.39 
   6   5   1    0.15    0.38 
   6   5   1   -0.61    0.87 
   6   5   1   -0.04    0.56 
   6   5   1   -0.22    0.90 
   6   5   1   -0.13    0.62 
   6   5   1    0.20    0.63 
   6   5   0    0.28    0.98 
   6   5   0    0.22    0.43 
   6   5   0    1.17    0.46 
   6   5   0    0.28    0.46 
   6   5   0    0.23    0.68 
   6   5  -1    1.24    0.99 
   6   5  -1   -0.20    0.45 
   6   5  -1    0.31    0.43 
   6   5  -1    0.25    0.46 
   6   5  -1   -0.17    0.67 
   6   5  -2    0.27    0.93 
   6   5  -2    0.78    0.47 
   6   5  -2    1.41    0.52 
   6   5  -3    0.16    0.44 
   6   5  -3    0.57    0.44 
   6   5  -4   -0.71    0.50 
   6   5  -4    0.45    0.40 
   6   5  -4    0.40    0.42 
   6   5  -5    0.34    0.34 
   6   5  -5    0.73    0.37 
   6   4   6    2.02    0.31 
   6   4   5    0.42    0.49 
   6   4   5    0.35    0.52 
   6   4   5    0.60    0.62 
   6   4   5    0.79    0.34 
   6   4   5    1.19    0.65 
   6   4   4    1.28    0.69 
   6   4   4    0.58    0.65 
   6   4   4    0.54    0.76 
   6   4   4    0.09    0.40 
   6   4   4    0.56    0.39 
   6   4   4    1.19    0.40 
   6   4   4    1.24    0.28 
   6   4   4    1.34    0.77 
   6   4   3   -0.17    0.76 
   6   4   3   -0.10    0.76 
   6   4   3    0.60    0.48 
   6   4   3    0.37    0.48 
   6   4   3    0.08    0.29 
   6   4   3   -0.62    0.82 
   6   4   2    1.15    0.97 
   6   4   2   -0.16    0.85 
   6   4   2    0.40    0.58 
   6   4   2    0.32    0.57 
   6   4   2    0.16    0.87 
   6   4   2    0.58    0.38 
   6   4   1   -0.80    0.99 
   6   4   1   -0.21    0.37 
   6   4   1   -0.14    0.39 
   6   4   1   -0.15    0.39 
   6   4   0    0.12    1.05 
   6   4   0    0.31    0.65 
   6   4   0   -0.24    0.45 
   6   4   0   -0.12    0.43 
   6   4   0    0.24    0.45 
   6   4  -1    0.04    1.03 
   6   4  -1    0.47    0.76 
   6   4  -1    0.53    0.49 
   6   4  -1    0.64    0.49 
   6   4  -2    0.66    0.78 
   6   4  -3   -0.19    0.78 
   6   4  -4   -1.06    0.77 
   6   4  -4   -0.95    0.67 
   6   4  -5   -0.29    0.71 
   6   3   8    0.16    0.22 
   6   3   7   -0.10    0.24 
   6   3   7    0.28    0.30 
   6   3   7    0.06    0.24 
   6   3   7    0.20    0.25 
   6   3   6    1.03    0.29 
   6   3   6    0.81    0.50 
   6   3   6    0.76    0.37 
   6   3   6    0.18    0.50 
   6   3   6    0.59    0.53 
   6   3   5    4.01    0.77 
   6   3   5    5.75    0.43 
   6   3   4    1.05    0.60 
   6   3   4    0.80    0.70 
   6   3   4   -0.23    0.75 
   6   3   4    0.79    0.39 
   6   3   3    0.82    0.79 
   6   3   3    0.81    0.79 
   6   3   3    0.72    0.45 
   6   3   3    0.67    0.44 
   6   3   2    0.25    0.88 
   6   3   2   -0.07    0.31 
   6   3   2    0.27    0.79 
   6   3   2   -0.24    0.82 
   6   3   2    0.86    0.40 
   6   3   2    1.20    0.85 
   6   3   2   -0.02    0.53 
   6   3   2   -0.17    0.54 
   6   3   1    0.19    0.37 
   6   3   1   -0.25    0.87 
   6   3   1    0.66    0.91 
   6   3   1    0.01    0.34 
   6   3   0   -0.14    0.36 
   6   3   0   -0.44    0.87 
   6   3   0    0.57    0.98 
   6   3   0    0.33    0.42 
   6   3   0   -0.08    0.41 
   6   3  -1   -0.05    0.66 
   6   3  -1    2.15    0.54 
   6   3  -2    0.21    0.75 
   6   3  -3    0.19    0.82 
   6   3  -4   -0.10    0.81 
   6   3  -5    0.43    1.69 
   6   2   8    0.25    0.21 
   6   2   8    0.05    0.21 
   6   2   8    0.33    0.24 
   6   2   7    0.56    0.41 
   6   2   7    0.41    0.27 
   6   2   7    0.57    0.27 
   6   2   7    0.39    0.30 
   6   2   7    0.66    0.24 
   6   2   6    0.42    0.35 
   6   2   6    0.20    0.52 
   6   2   6   -0.07    0.26 
   6   2   6   -0.18    0.50 
   6   2   6   -0.16    0.50 
   6   2   6   -0.04    0.47 
   6   2   5    4.19    0.38 
   6   2   5    3.10    0.79 
   6   2   5    3.03    0.69 
   6   2   5    4.23    0.51 
   6   2   5    4.82    0.52 
   6   2   4    9.08    0.50 
   6   2   4    8.09    1.10 
   6   2   3    0.24    0.41 
   6   2   3   -0.44    0.67 
   6   2   3    0.51    0.69 
   6   2   3    0.39    0.64 
   6   2   3    0.09    0.74 
   6   2   2    0.81    0.41 
   6   2   2    0.28    0.61 
   6   2   2    0.22    0.72 
   6   2   2    0.39    0.66 
   6   2   2   -0.58    0.72 
   6   2   2    0.14    0.79 
   6   2   1   -0.48    0.71 
   6   2   1    0.29    0.75 
   6   2   1    0.07    0.38 
   6   2   1   -0.09    0.76 
   6   2   0    3.06    0.81 
   6   2   0    2.98    0.97 
   6   2  -1    0.18    0.86 
   6   2  -1    1.13    0.50 
   6   2  -2    2.25    0.57 
   6   2  -3   -0.12    0.79 
   6   2  -4   -0.03    0.80 
   6   1   8    0.23    0.23 
   6   1   7    0.41    0.29 
   6   1   7    0.75    0.21 
   6   1   7    0.27    0.42 
   6   1   6    3.06    0.28 
   6   1   6    2.73    0.60 
   6   1   6    2.25    0.58 
   6   1   5    0.51    0.59 
   6   1   5    0.29    0.54 
   6   1   5    0.48    0.49 
   6   1   5    0.88    0.26 
   6   1   5    0.42    0.36 
   6   1   5    0.92    0.41 
   6   1   5    0.76    0.40 
   6   1   4    6.63    0.40 
   6   1   4    5.32    0.73 
   6   1   4    4.84    0.82 
   6   1   4    9.41    0.75 
   6   1   4    9.86    0.76 
   6   1   4    6.98    0.88 
   6   1   3    0.03    0.37 
   6   1   3    0.02    0.37 
   6   1   3   -0.04    0.28 
   6   1   3   -0.02    0.56 
   6   1   3   -0.20    0.56 
   6   1   3    0.04    0.66 
   6   1   3   -0.20    0.42 
   6   1   2   -0.15    0.56 
   6   1   2   -0.27    0.58 
   6   1   2    0.10    0.60 
   6   1   2   -0.26    0.69 
   6   1   2    0.02    0.39 
   6   1   1    0.04    0.59 
   6   1   1    0.41    0.65 
   6   1   1    0.96    0.67 
   6   1   0    3.41    0.80 
   6   1   0    3.15    0.89 
   6   1  -1    2.64    0.75 
   6   1  -1    2.25    0.91 
   6   1  -2   15.80    0.93 
   6   1  -2    5.19    1.12 
   6   0   8    1.36    0.22 
   6   0   8    1.95    0.22 
   6   0   7    0.04    0.24 
   6   0   7    0.31    0.24 
   6   0   7    0.15    0.24 
   6   0   6    2.48    0.54 
   6   0   6    3.45    0.55 
   6   0   5    1.34    0.53 
   6   0   5    1.56    0.44 
   6   0   5    1.67    0.45 
   6   0   5    1.11    0.52 
   6   0   5    0.22    0.31 
   6   0   5    0.31    0.53 
   6   0   4    0.05    0.31 
   6   0   4    0.11    0.51 
   6   0   4    0.03    0.52 
   6   0   4    0.19    0.39 
   6   0   4   -0.04    0.39 
   6   0   3    6.35    0.65 
   6   0   3    4.67    0.74 
   6   0   3    3.87    0.73 
   6   0   3    4.33    0.70 
   6   0   3    7.37    0.71 
   6   0   3    6.75    0.69 
   6   0   2   -0.25    0.58 
   6   0   2    0.22    0.37 
   6   0   2   -0.15    0.53 
   6   0   2    0.35    0.41 
   6   0   2    0.22    0.38 
   6   0   1   -0.09    0.60 
   6   0   1   -0.47    0.58 
   6   0   1    0.40    0.38 
   6   0   0    3.15    0.71 
   6   0   0    8.06    0.70 
   6  -1   8    1.51    0.20 
   6  -1   8    1.97    0.21 
   6  -1   7    0.49    0.34 
   6  -1   7    0.24    0.21 
   6  -1   7    0.22    0.22 
   6  -1   6    0.28    0.24 
   6  -1   6    0.24    0.24 
   6  -1   6   -0.25    0.40 
   6  -1   6   -0.13    0.38 
   6  -1   5    0.72    0.37 
   6  -1   5    0.71    0.38 
   6  -1   5    0.89    0.48 
   6  -1   5    0.47    0.43 
   6  -1   4    3.52    0.56 
   6  -1   4    3.42    0.55 
   6  -1   4    2.64    0.59 
   6  -1   4    2.33    0.55 
   6  -1   3    1.07    0.52 
   6  -1   3    1.03    0.46 
   6  -1   3    1.19    0.46 
   6  -1   2    4.60    0.62 
   6  -1   2    4.69    0.63 
   6  -1   2    4.90    0.58 
   6  -1   1    2.15    0.48 
   6  -1   1    2.15    0.49 
   6  -1   0    7.75    0.68 
   6  -2   7    0.12    0.18 
   6  -2   7    0.09    0.18 
   6  -2   6    0.78    0.22 
   6  -2   6    0.37    0.22 
   6  -2   6    0.90    0.37 
   6  -2   5   -0.14    0.34 
   6  -2   5   -0.07    0.40 
   6  -2   5    0.13    0.22 
   6  -2   5    0.16    0.22 
   6  -2   4    2.06    0.50 
   6  -2   4    1.52    0.48 
   6  -2   4    2.34    0.48 
   6  -2   4    1.54    0.43 
   6  -2   4    1.37    0.26 
   6  -2   4    0.83    0.26 
   6  -2   3    5.30    0.65 
   6  -2   3    7.17    0.69 
   6  -2   3    6.22    0.65 
   6  -2   3    7.35    0.74 
   6  -2   2    5.13    0.63 
   6  -2   2    5.85    0.65 
   6  -2   2    6.29    0.65 
   6  -2   2    6.04    0.70 
   6  -2   1    0.63    0.42 
   6  -2   1   -0.10    0.41 
   6  -2   1   -0.35    0.52 
   6  -2   0    6.69    0.66 
   6  -2   0    7.01    0.68 
   6  -3   7    0.55    0.13 
   6  -3   6    0.36    0.14 
   6  -3   5    0.15    0.16 
   6  -3   4    2.56    0.23 
   6  -3   3    2.83    0.25 
   6  -3   2    0.47    0.44 
   6  -3   1    0.10    0.42 
   6  -3   0    0.14    0.44 
   6  -4   5    1.40    0.17 
   6  -4   4    0.03    0.16 
   6  -4   3    0.80    0.34 
   6  -4   2    1.37    0.39 
   6  -5   3    0.83    0.19 
   6  -5   2    0.46    0.20 
   7   5   2   -0.10    0.28 
   7   5   2    0.11    0.27 
   7   5   1   -0.04    0.31 
   7   5   1   -0.14    0.31 
   7   5   0   -0.12    0.35 
   7   5   0   -0.22    0.35 
   7   5  -1    0.03    0.36 
   7   5  -1   -0.24    0.36 
   7   5  -2    0.28    0.34 
   7   5  -2    0.06    0.34 
   7   4   5   -0.11    0.22 
   7   4   3    0.50    0.25 
   7   4   2   -0.26    0.27 
   7   4   1   -0.13    0.35 
   7   4   1   -0.14    0.35 
   7   4   0   -0.39    0.41 
   7   4   0   -0.16    0.40 
   7   3   5    0.10    0.25 
   7   3   4   -0.05    0.21 
   7   3   3    0.41    0.25 
   7   3   2   -0.08    0.26 
   7   3   1    0.08    0.52 
   7   3   0    0.04    0.58 
   7   3  -1    0.63    0.65 
   7   2   5    0.02    0.24 
   7   2   4   -0.37    0.28 
   7   2   3    0.13    0.44 
   7   2   2    0.68    0.55 
   7   2   1   -0.14    0.56 
   7   2   0   -0.53    0.61 
   7   1   6   -0.03    0.18 
   7   1   6   -0.09    0.18 
   7   1   4   -0.04    0.24 
   7   1   3    0.18    0.42 
   7   1   2    0.53    0.47 
   7   1   1    0.79    0.56 
   7   0   6   -0.13    0.16 
   7   0   6   -0.07    0.17 
   7   0   5    0.23    0.20 
   7   0   5    0.18    0.20 
   7   0   4    0.10    0.37 
   7   0   2    0.72    0.44 
   7   0   1    0.91    0.48 
   7  -1   5    0.08    0.17 
   7  -1   5    0.28    0.18 
   7  -1   4    0.17    0.19 
   7  -1   4    0.16    0.20 
   7  -1   3    0.79    0.38 
   7  -1   2    0.70    0.41 
   0   0   0    0.00    0.00 
  
  
TITL exp15v3_293k_auto in P1 
REM P1 (#1 in standard setting) 
CELL 1.54184   6.611119   8.124688  10.054636  89.9859  85.8559  82.1955 
ZERR    2.00   0.000632   0.000524   0.000388   0.0041   0.0050   0.0065 
LATT -1 
SFAC C H N O 
UNIT 20.00 24.00 4.00 4.00 
REM  CrysAlisPro recorded range (K): Min=292.9; max=293.1; aver:293.0 
TEMP 20 
TREF 
HKLF 4 
END 
_computing_structure_solution     'SHELXT 2018/2 (Sheldrick, 2018)' 
; 
_shelx_hkl_checksum   83128 
  
