 
data_mce-mecn-100k
  
_audit_creation_method            'SHELXL-2019/3' 
_chemical_name_systematic         ? 
_chemical_name_common             ? 
_chemical_melting_point           ? 
_chemical_formula_moiety          'C8 H9 N O2, C2 H3 N' 
_chemical_formula_sum 
 'C10 H12 N2 O2' 
_chemical_formula_weight          192.22 
  
loop_ 
 _atom_type_symbol 
 _atom_type_description 
 _atom_type_scat_dispersion_real 
 _atom_type_scat_dispersion_imag 
 _atom_type_scat_source 
 'C'  'C'   0.0181   0.0091 
 'International Tables Vol C Tables 4.2.6.8 and 6.1.1.4' 
 'H'  'H'   0.0000   0.0000 
 'International Tables Vol C Tables 4.2.6.8 and 6.1.1.4' 
 'N'  'N'   0.0311   0.0180 
 'International Tables Vol C Tables 4.2.6.8 and 6.1.1.4' 
 'O'  'O'   0.0492   0.0322 
 'International Tables Vol C Tables 4.2.6.8 and 6.1.1.4' 
  
_space_group_crystal_system       triclinic 
_space_group_IT_number            2 
_space_group_name_H-M_alt         'P -1' 
_space_group_name_Hall            '-P 1' 
  
_shelx_space_group_comment 
; 
The symmetry employed for this shelxl refinement is uniquely defined 
by the following loop, which should always be used as a source of 
symmetry information in preference to the above space-group names. 
They are only intended as comments. 
; 
  
loop_ 
 _space_group_symop_operation_xyz 
 'x, y, z' 
 '-x, -y, -z' 
  
_cell_length_a                    6.5791(3) 
_cell_length_b                    7.8311(2) 
_cell_length_c                    9.9914(2) 
_cell_angle_alpha                 89.248(2) 
_cell_angle_beta                  86.118(3) 
_cell_angle_gamma                 83.415(3) 
_cell_volume                      510.20(3) 
_cell_formula_units_Z             2 
_cell_measurement_temperature     100(2) 
_cell_measurement_reflns_used     16718 
_cell_measurement_theta_min       4.3460 
_cell_measurement_theta_max       79.1530 
  
_exptl_crystal_description        'block'
_exptl_crystal_colour             'colorless' 
_exptl_crystal_density_meas       ? 
_exptl_crystal_density_method     'not measured' 
_exptl_crystal_density_diffrn     1.251 
_exptl_crystal_F_000              204 
_exptl_transmission_factor_min    ? 
_exptl_transmission_factor_max    ? 
_exptl_crystal_size_max           0.430 
_exptl_crystal_size_mid           0.370 
_exptl_crystal_size_min           0.220 
_exptl_absorpt_coefficient_mu     0.729 
_shelx_estimated_absorpt_T_min    0.744 
_shelx_estimated_absorpt_T_max    0.856 
_exptl_absorpt_correction_type    multi-scan 
_exptl_absorpt_correction_T_min   0.33396 
_exptl_absorpt_correction_T_max   1.00000 
_exptl_absorpt_process_details     
; 
CrysAlisPro 1.171.43.104a (Rigaku Oxford Diffraction, 2023) 
Empirical absorption correction using spherical harmonics, 
implemented in SCALE3 ABSPACK scaling algorithm. 
; 
_diffrn_ambient_temperature       100(2) 
_diffrn_radiation_wavelength      1.54184 
_diffrn_radiation_type            CuK\a 
_diffrn_source                    'micro-focus sealed X-ray tube' 
_diffrn_measurement_device_type   'XtaLAB Synergy, Dualflex, HyPix' 
_diffrn_measurement_method        '\w scans' 
_diffrn_detector_area_resol_mean  10.0000 
_diffrn_reflns_number             20737 
_diffrn_reflns_av_unetI/netI      0.0289 
_diffrn_reflns_av_R_equivalents   0.0630 
_diffrn_reflns_limit_h_min        -8 
_diffrn_reflns_limit_h_max        7 
_diffrn_reflns_limit_k_min        -9 
_diffrn_reflns_limit_k_max        9 
_diffrn_reflns_limit_l_min        -12 
_diffrn_reflns_limit_l_max        12 
_diffrn_reflns_theta_min          4.436 
_diffrn_reflns_theta_max          79.517 
_diffrn_reflns_theta_full         67.684 
_diffrn_measured_fraction_theta_max   0.915 
_diffrn_measured_fraction_theta_full  0.978 
_diffrn_reflns_Laue_measured_fraction_max    0.915 
_diffrn_reflns_Laue_measured_fraction_full   0.978 
_diffrn_reflns_point_group_measured_fraction_max   0.915 
_diffrn_reflns_point_group_measured_fraction_full  0.978 
_reflns_number_total              2035 
_reflns_number_gt                 1827 
_reflns_threshold_expression      'I > 2\s(I)' 
_reflns_Friedel_coverage          0.000 
_reflns_Friedel_fraction_max      . 
_reflns_Friedel_fraction_full     . 
  
_reflns_special_details 
; 
 Reflections were merged by SHELXL according to the crystal 
 class for the calculation of statistics and refinement. 
  
 _reflns_Friedel_fraction is defined as the number of unique 
 Friedel pairs measured divided by the number that would be 
 possible theoretically, ignoring centric projections and 
 systematic absences. 
; 
  
_computing_data_collection        
;
'CrysAlisPro system (CCD 43.122a 64-bit (release 15-05-2024))' 
;
_computing_cell_refinement        'CrysAlisPro 1.171.43.104a (Rigaku OD, 2023)' 
_computing_data_reduction         'CrysAlisPro 1.171.43.104a (Rigaku OD, 2023)' 
_computing_structure_solution     'SHELXT 2018/2 (Sheldrick, 2018)' 
_computing_structure_refinement 'SHELXL-2019/2 (Sheldrick, 2019)' 
_computing_molecular_graphics    'SHELXLE Revision:1634 (Hubschle, C.B., 2011)' 
_computing_publication_material   'WinGX (Farrugia L.J., 2012)' 
_refine_special_details
;
all hydrogen atoms were found from difference Fourier and refined freely
;
_refine_ls_structure_factor_coef  Fsqd 
_refine_ls_matrix_type            full 
_refine_ls_weighting_scheme       calc 
_refine_ls_weighting_details 
'w=1/[\s^2^(Fo^2^)+(0.1081P)^2^+0.1004P] where P=(Fo^2^+2Fc^2^)/3' 
_atom_sites_solution_primary      dual
_atom_sites_solution_secondary    difmap 
_atom_sites_solution_hydrogens    difmap 
_refine_ls_hydrogen_treatment     refall 
_refine_ls_extinction_method      none 
_refine_ls_extinction_coef        . 
_refine_ls_number_reflns          2035 
_refine_ls_number_parameters      175 
_refine_ls_number_restraints      0 
_refine_ls_R_factor_all           0.0600 
_refine_ls_R_factor_gt            0.0536 
_refine_ls_wR_factor_ref          0.1569 
_refine_ls_wR_factor_gt           0.1522 
_refine_ls_goodness_of_fit_ref    1.069 
_refine_ls_restrained_S_all       1.069 
_refine_ls_shift/su_max           0.000 
_refine_ls_shift/su_mean          0.000 
  
loop_ 
 _atom_site_label 
 _atom_site_type_symbol 
 _atom_site_fract_x 
 _atom_site_fract_y 
 _atom_site_fract_z 
 _atom_site_U_iso_or_equiv 
 _atom_site_adp_type 
 _atom_site_occupancy 
 _atom_site_site_symmetry_order 
 _atom_site_calc_flag 
 _atom_site_refinement_flags_posn 
 _atom_site_refinement_flags_adp 
 _atom_site_refinement_flags_occupancy 
 _atom_site_disorder_assembly 
 _atom_site_disorder_group 
O1 O 0.33001(17) 0.49818(14) 0.84514(10) 0.0340(3) Uani 1 1 d . . . . . 
O2 O 0.97016(19) 0.29408(15) 1.03010(10) 0.0367(3) Uani 1 1 d . . . . . 
H2O H 0.863(4) 0.376(3) 1.068(3) 0.065(7) Uiso 1 1 d . . . . . 
N1 N 0.4976(2) 0.34154(17) 0.67309(12) 0.0304(3) Uani 1 1 d . . . . . 
H1 H 0.491(3) 0.303(3) 0.591(2) 0.040(5) Uiso 1 1 d . . . . . 
N2 N 0.4574(3) 0.2216(2) 0.39048(14) 0.0483(4) Uani 1 1 d . . . . . 
C1 C 0.6809(2) 0.27359(18) 0.73111(13) 0.0288(4) Uani 1 1 d . . . . . 
C2 C 0.8109(3) 0.1520(2) 0.65663(15) 0.0338(4) Uani 1 1 d . . . . . 
H2 H 0.770(3) 0.114(3) 0.569(2) 0.046(5) Uiso 1 1 d . . . . . 
C3 C 0.9913(3) 0.0793(2) 0.70914(16) 0.0379(4) Uani 1 1 d . . . . . 
H3 H 1.082(4) -0.005(3) 0.656(2) 0.045(5) Uiso 1 1 d . . . . . 
C4 C 1.0439(3) 0.1270(2) 0.83464(16) 0.0363(4) Uani 1 1 d . . . . . 
H4 H 1.171(4) 0.075(3) 0.873(2) 0.049(6) Uiso 1 1 d . . . . . 
C5 C 0.9149(2) 0.24960(19) 0.90763(14) 0.0304(4) Uani 1 1 d . . . . . 
C6 C 0.7328(2) 0.32533(18) 0.85693(13) 0.0283(4) Uani 1 1 d . . . . . 
H6 H 0.640(3) 0.412(2) 0.9109(17) 0.026(4) Uiso 1 1 d . . . . . 
C7 C 0.3382(2) 0.44565(19) 0.72822(14) 0.0301(4) Uani 1 1 d . . . . . 
C8 C 0.1672(3) 0.4980(2) 0.63762(16) 0.0359(4) Uani 1 1 d . . . . . 
H8A H 0.200(4) 0.456(3) 0.549(3) 0.070(7) Uiso 1 1 d . . . . . 
H8B H 0.049(4) 0.461(3) 0.672(3) 0.070(7) Uiso 1 1 d . . . . . 
H8C H 0.146(4) 0.621(4) 0.632(3) 0.073(7) Uiso 1 1 d . . . . . 
C9 C 0.4126(3) 0.1578(2) 0.14070(14) 0.0337(4) Uani 1 1 d . . . . . 
H9A H 0.294(4) 0.220(3) 0.112(3) 0.065(7) Uiso 1 1 d . . . . . 
H9B H 0.398(4) 0.035(3) 0.128(2) 0.053(6) Uiso 1 1 d . . . . . 
H9C H 0.531(4) 0.188(3) 0.084(2) 0.056(6) Uiso 1 1 d . . . . . 
C10 C 0.4372(3) 0.1937(2) 0.28075(14) 0.0341(4) Uani 1 1 d . . . . . 
  
loop_ 
 _atom_site_aniso_label 
 _atom_site_aniso_U_11 
 _atom_site_aniso_U_22 
 _atom_site_aniso_U_33 
 _atom_site_aniso_U_23 
 _atom_site_aniso_U_13 
 _atom_site_aniso_U_12 
O1 0.0299(6) 0.0475(6) 0.0241(5) -0.0044(4) -0.0071(4) 0.0010(5) 
O2 0.0356(7) 0.0467(6) 0.0267(6) -0.0024(4) -0.0109(5) 0.0061(5) 
N1 0.0331(8) 0.0391(7) 0.0199(6) -0.0022(5) -0.0057(5) -0.0059(5) 
N2 0.0655(11) 0.0566(9) 0.0272(7) -0.0024(6) -0.0087(7) -0.0225(8) 
C1 0.0318(8) 0.0327(7) 0.0223(7) 0.0009(5) -0.0022(5) -0.0055(6) 
C2 0.0400(9) 0.0365(8) 0.0251(7) -0.0032(5) -0.0007(6) -0.0054(6) 
C3 0.0413(10) 0.0369(8) 0.0332(8) -0.0044(6) 0.0026(7) 0.0030(7) 
C4 0.0344(9) 0.0397(8) 0.0329(8) 0.0017(6) -0.0035(6) 0.0049(7) 
C5 0.0310(9) 0.0350(7) 0.0246(7) 0.0017(5) -0.0035(6) -0.0004(6) 
C6 0.0304(9) 0.0326(7) 0.0216(7) -0.0001(5) -0.0020(6) -0.0019(6) 
C7 0.0309(8) 0.0371(7) 0.0235(6) 0.0009(5) -0.0053(6) -0.0066(6) 
C8 0.0338(10) 0.0489(9) 0.0266(7) 0.0037(6) -0.0106(6) -0.0067(7) 
C9 0.0355(9) 0.0415(8) 0.0244(7) -0.0026(6) -0.0075(6) -0.0014(7) 
C10 0.0368(9) 0.0383(8) 0.0283(7) -0.0017(6) -0.0046(6) -0.0072(6) 
  
_geom_special_details 
; 
 All esds (except the esd in the dihedral angle between two l.s. planes) 
 are estimated using the full covariance matrix.  The cell esds are taken 
 into account individually in the estimation of esds in distances, angles 
 and torsion angles; correlations between esds in cell parameters are only 
 used when they are defined by crystal symmetry.  An approximate (isotropic) 
 treatment of cell esds is used for estimating esds involving l.s. planes. 
; 
  
loop_ 
 _geom_bond_atom_site_label_1 
 _geom_bond_atom_site_label_2 
 _geom_bond_distance 
 _geom_bond_site_symmetry_2 
 _geom_bond_publ_flag 
O1 C7 1.2393(17) . ? 
O2 C5 1.3607(17) . ? 
O2 H2O 0.96(3) . ? 
N1 C7 1.344(2) . ? 
N1 C1 1.419(2) . ? 
N1 H1 0.88(2) . ? 
N2 C10 1.140(2) . ? 
C1 C2 1.392(2) . ? 
C1 C6 1.4017(19) . ? 
C2 C3 1.389(2) . ? 
C2 H2 0.99(2) . ? 
C3 C4 1.390(2) . ? 
C3 H3 0.98(2) . ? 
C4 C5 1.386(2) . ? 
C4 H4 0.99(2) . ? 
C5 C6 1.398(2) . ? 
C6 H6 0.995(19) . ? 
C7 C8 1.508(2) . ? 
C8 H8A 0.95(3) . ? 
C8 H8B 0.91(3) . ? 
C8 H8C 0.96(3) . ? 
C9 C10 1.4544(19) . ? 
C9 H9A 0.93(3) . ? 
C9 H9B 0.98(2) . ? 
C9 H9C 0.98(2) . ? 
  
loop_ 
 _geom_angle_atom_site_label_1 
 _geom_angle_atom_site_label_2 
 _geom_angle_atom_site_label_3 
 _geom_angle 
 _geom_angle_site_symmetry_1 
 _geom_angle_site_symmetry_3 
 _geom_angle_publ_flag 
C5 O2 H2O 107.5(15) . . ? 
C7 N1 C1 128.87(12) . . ? 
C7 N1 H1 119.0(14) . . ? 
C1 N1 H1 112.1(14) . . ? 
C2 C1 C6 120.51(14) . . ? 
C2 C1 N1 116.91(13) . . ? 
C6 C1 N1 122.57(14) . . ? 
C3 C2 C1 119.46(14) . . ? 
C3 C2 H2 120.8(13) . . ? 
C1 C2 H2 119.7(13) . . ? 
C2 C3 C4 120.87(16) . . ? 
C2 C3 H3 118.8(13) . . ? 
C4 C3 H3 120.3(13) . . ? 
C5 C4 C3 119.39(15) . . ? 
C5 C4 H4 119.2(13) . . ? 
C3 C4 H4 121.4(13) . . ? 
O2 C5 C4 118.17(14) . . ? 
O2 C5 C6 120.89(14) . . ? 
C4 C5 C6 120.93(13) . . ? 
C5 C6 C1 118.83(14) . . ? 
C5 C6 H6 120.3(10) . . ? 
C1 C6 H6 120.8(10) . . ? 
O1 C7 N1 123.18(13) . . ? 
O1 C7 C8 121.20(15) . . ? 
N1 C7 C8 115.62(13) . . ? 
C7 C8 H8A 111.6(17) . . ? 
C7 C8 H8B 110.1(16) . . ? 
H8A C8 H8B 111(2) . . ? 
C7 C8 H8C 109.2(16) . . ? 
H8A C8 H8C 107(2) . . ? 
H8B C8 H8C 108(2) . . ? 
C10 C9 H9A 110.7(15) . . ? 
C10 C9 H9B 111.1(13) . . ? 
H9A C9 H9B 106.7(19) . . ? 
C10 C9 H9C 110.4(12) . . ? 
H9A C9 H9C 109(2) . . ? 
H9B C9 H9C 108.9(18) . . ? 
N2 C10 C9 179.70(19) . . ? 
  
loop_ 
 _geom_torsion_atom_site_label_1 
 _geom_torsion_atom_site_label_2 
 _geom_torsion_atom_site_label_3 
 _geom_torsion_atom_site_label_4 
 _geom_torsion 
 _geom_torsion_site_symmetry_1 
 _geom_torsion_site_symmetry_2 
 _geom_torsion_site_symmetry_3 
 _geom_torsion_site_symmetry_4 
 _geom_torsion_publ_flag 
C7 N1 C1 C2 172.57(14) . . . . ? 
C7 N1 C1 C6 -7.9(2) . . . . ? 
C6 C1 C2 C3 1.3(2) . . . . ? 
N1 C1 C2 C3 -179.18(13) . . . . ? 
C1 C2 C3 C4 -0.2(2) . . . . ? 
C2 C3 C4 C5 -0.5(3) . . . . ? 
C3 C4 C5 O2 -179.88(13) . . . . ? 
C3 C4 C5 C6 0.2(2) . . . . ? 
O2 C5 C6 C1 -179.10(13) . . . . ? 
C4 C5 C6 C1 0.8(2) . . . . ? 
C2 C1 C6 C5 -1.5(2) . . . . ? 
N1 C1 C6 C5 178.93(13) . . . . ? 
C1 N1 C7 O1 -0.5(2) . . . . ? 
C1 N1 C7 C8 178.75(13) . . . . ? 
  
loop_ 
 _geom_hbond_atom_site_label_D 
 _geom_hbond_atom_site_label_H 
 _geom_hbond_atom_site_label_A 
 _geom_hbond_distance_DH 
 _geom_hbond_distance_HA 
 _geom_hbond_distance_DA 
 _geom_hbond_angle_DHA 
 _geom_hbond_site_symmetry_A 
 _geom_hbond_publ_flag 
O2 H2O O1  0.96(3) 1.71(3) 2.6615(17) 172(2) 2_667 yes 
N1 H1 N2  0.88(2) 2.15(2) 3.0253(18) 176(2) . yes 
C6 H6 O1  0.995(19) 2.214(18) 2.8433(19) 119.8(12) . yes 
C6 H6 O1  0.995(19) 2.574(17) 3.2790(17) 127.8(13) 2_667 yes 
C9 H9A O2  0.93(3) 2.34(3) 3.244(2) 163(2) 1_454 yes 
  
_refine_diff_density_max    0.254 
_refine_diff_density_min   -0.318 
_refine_diff_density_rms    0.066 
  
_shelx_res_file 
; 
TITL mce-mecn-100k_a.res in P-1 
    mce-mecn-100k_a.res 
    created by SHELXL-2019/3 at 11:44:23 on 18-Nov-2024 
REM Old TITL mce-mecn-100k in P1 
REM SHELXT solution in P-1: R1 0.137, Rweak 0.006, Alpha 0.046 
REM <I/s>   0.000 for    0 systematic absences,  Orientation as input 
REM Formula found by SHELXT:  C10 N2 O2 
CELL  1.54184   6.5791   7.8311   9.9914   89.248   86.118   83.415 
ZERR    2.000   0.0003   0.0002   0.0002    0.002    0.003    0.003 
LATT  1 
SFAC C H N O 
UNIT 20 24 4 4 
TEMP -173 
L.S. 10 
BOND $H 
EQIV $1 -x+1, -y+1, -z+2 
HTAB O2 O1_$1 
HTAB N1 N2 
HTAB C6 O1 
HTAB C6 O1_$1 
EQIV $2 x-1, y, z-1 
HTAB C9 O2_$2 
HTAB 
SIZE 0.22 0.37 0.43 
CONF 
RTAB HDIST O2 H2O 
RTAB HDIST N1 H1 
ACTA 
LIST 4 
FMAP 2 
PLAN 20 
REM EXTI 0.007566 
WGHT    0.108100    0.100400 
FVAR       0.82970 
O1    4    0.330007    0.498183    0.845144    11.00000    0.02989    0.04752 = 
         0.02406   -0.00441   -0.00715    0.00101 
O2    4    0.970162    0.294076    1.030099    11.00000    0.03555    0.04667 = 
         0.02668   -0.00244   -0.01086    0.00614 
H2O   2    0.862646    0.375843    1.068178    11.00000    0.06504 
N1    3    0.497578    0.341543    0.673091    11.00000    0.03311    0.03910 = 
         0.01994   -0.00219   -0.00572   -0.00594 
H1    2    0.491218    0.303381    0.591387    11.00000    0.04031 
N2    3    0.457407    0.221627    0.390482    11.00000    0.06552    0.05657 = 
         0.02724   -0.00241   -0.00867   -0.02247 
C1    1    0.680872    0.273586    0.731108    11.00000    0.03184    0.03273 = 
         0.02230    0.00093   -0.00223   -0.00551 
C2    1    0.810913    0.151951    0.656627    11.00000    0.04002    0.03650 = 
         0.02508   -0.00316   -0.00071   -0.00536 
H2    2    0.770412    0.113859    0.569055    11.00000    0.04625 
C3    1    0.991332    0.079319    0.709137    11.00000    0.04132    0.03691 = 
         0.03317   -0.00443    0.00263    0.00300 
H3    2    1.082221   -0.005024    0.655697    11.00000    0.04525 
C4    1    1.043857    0.126953    0.834645    11.00000    0.03440    0.03967 = 
         0.03291    0.00169   -0.00355    0.00488 
H4    2    1.171017    0.075253    0.873087    11.00000    0.04895 
C5    1    0.914858    0.249597    0.907635    11.00000    0.03098    0.03501 = 
         0.02458    0.00170   -0.00348   -0.00036 
C6    1    0.732807    0.325331    0.856934    11.00000    0.03037    0.03263 = 
         0.02165   -0.00012   -0.00200   -0.00188 
H6    2    0.639992    0.411524    0.910865    11.00000    0.02618 
C7    1    0.338167    0.445647    0.728223    11.00000    0.03087    0.03705 = 
         0.02352    0.00086   -0.00533   -0.00663 
C8    1    0.167180    0.497960    0.637620    11.00000    0.03380    0.04893 = 
         0.02657    0.00373   -0.01061   -0.00670 
H8A   2    0.200027    0.456391    0.549437    11.00000    0.06968 
H8B   2    0.049222    0.460555    0.672116    11.00000    0.06977 
H8C   2    0.145674    0.621177    0.631848    11.00000    0.07264 
C9    1    0.412566    0.157764    0.140697    11.00000    0.03551    0.04150 = 
         0.02436   -0.00259   -0.00751   -0.00144 
H9A   2    0.294056    0.219790    0.111895    11.00000    0.06504 
H9B   2    0.398325    0.035376    0.127718    11.00000    0.05328 
H9C   2    0.530982    0.188099    0.084278    11.00000    0.05635 
C10   1    0.437213    0.193739    0.280751    11.00000    0.03677    0.03833 = 
         0.02833   -0.00171   -0.00463   -0.00724 
HKLF 4 
  
  
  
  
REM  mce-mecn-100k_a.res in P-1 
REM wR2 = 0.1569, GooF = S = 1.069, Restrained GooF = 1.069 for all data 
REM R1 = 0.0536 for 1827 Fo > 4sig(Fo) and 0.0600 for all 2035 data 
REM 175 parameters refined using 0 restraints 
  
END 
  
WGHT      0.1080      0.1008 
  
REM Instructions for potential hydrogen bonds 
HTAB O2 O1_$1 
HTAB N1 N2 
HTAB C6 O1 
HTAB C6 O1_$1 
HTAB C9 O2_$2 
  
REM Highest difference peak  0.254,  deepest hole -0.318,  1-sigma level  0.066 
Q1    1   0.1700  0.3773  0.5797  11.00000  0.05    0.25 
Q2    1   0.2455  0.5463  0.5560  11.00000  0.05    0.21 
Q3    1   0.9896  0.4358  1.0386  11.00000  0.05    0.20 
Q4    1   0.3793  0.6603  0.8392  11.00000  0.05    0.20 
Q5    1   0.8459  0.2801  1.1134  11.00000  0.05    0.19 
Q6    1   0.6977  0.1450  0.7188  11.00000  0.05    0.19 
Q7    1   1.0273 -0.0544  0.6773  11.00000  0.05    0.19 
Q8    1   0.4638  0.5906  0.6780  11.00000  0.05    0.19 
Q9    1   0.8080  0.2747  0.6541  11.00000  0.05    0.19 
Q10   1   1.0685  0.2316  0.8362  11.00000  0.05    0.18 
Q11   1   0.7893  0.5062  1.0723  11.00000  0.05    0.18 
Q12   1   1.0950  0.3147  0.9411  11.00000  0.05    0.18 
Q13   1   0.3278  0.2861  0.4594  11.00000  0.05    0.17 
Q14   1   0.3111  0.6160  0.8791  11.00000  0.05    0.17 
Q15   1   1.0644  0.3963  0.9830  11.00000  0.05    0.17 
Q16   1   0.5059  0.4628  0.6681  11.00000  0.05    0.17 
Q17   1   0.4175  0.5945  0.7790  11.00000  0.05    0.17 
Q18   1   0.8894  0.1689  1.0544  11.00000  0.05    0.17 
Q19   1   0.4283  0.3166  0.3215  11.00000  0.05    0.17 
Q20   1   0.0310  0.5457  0.7063  11.00000  0.05    0.17 
; 
_shelx_res_checksum   10992 
  
_shelx_hkl_file 
; 
  -8  -3  -3    0.01    0.11 
  -8  -3  -2    1.58    0.19 
  -8  -3  -1   -0.11    0.16 
  -8  -3   0   23.06    0.56 
  -8  -3   1    0.53    0.17 
  -8  -2  -4    1.66    0.16 
  -8  -1  -4    0.23    0.12 
  -8  -1  -3   -0.09    0.14 
  -8  -1  -2    2.08    0.22 
  -8  -1  -1    1.64    0.23 
  -8  -1   0    0.06    0.19 
  -7  -6  -1    8.57    0.41 
  -7  -6   0    0.12    0.21 
  -7  -6   1    0.17    0.17 
  -7  -5  -5    0.43    0.14 
  -7  -5  -4    9.01    0.34 
  -7  -5  -3   21.45    0.54 
  -7  -5  -2    9.83    0.34 
  -7  -5  -1    0.36    0.19 
  -7  -5   0    0.48    0.19 
  -7  -5   1    2.41    0.24 
  -7  -5   3    2.04    0.23 
  -7  -4  -6    4.18    0.22 
  -7  -4  -5    0.03    0.17 
  -7  -4  -4   27.85    0.66 
  -7  -4  -3   32.51    0.76 
  -7  -4  -2    0.06    0.23 
  -7  -4  -2    0.03    0.36 
  -7  -4  -2   -0.10    0.20 
  -7  -4  -1    0.67    0.29 
  -7  -4  -1    0.94    0.30 
  -7  -4  -1    0.70    0.23 
  -7  -4  -1    0.47    0.36 
  -7  -4   0    3.36    0.36 
  -7  -4   0    2.92    0.34 
  -7  -4   0    3.09    0.30 
  -7  -4   1   33.44    0.79 
  -7  -4   1   33.69    0.79 
  -7  -4   1   33.14    0.78 
  -7  -4   2    2.95    0.32 
  -7  -4   2    3.07    0.31 
  -7  -4   2    2.67    0.29 
  -7  -4   3   18.26    0.52 
  -7  -4   3   18.57    0.52 
  -7  -4   4    0.52    0.20 
  -7  -3  -6    0.48    0.15 
  -7  -3  -5   14.77    0.49 
  -7  -3  -4    0.27    0.19 
  -7  -3  -3    1.25    0.25 
  -7  -3  -2    0.88    0.32 
  -7  -3  -2    0.77    0.32 
  -7  -3  -2    0.52    0.22 
  -7  -3  -2    0.30    0.38 
  -7  -3  -1    0.89    0.31 
  -7  -3  -1    0.81    0.31 
  -7  -3  -1    0.31    0.40 
  -7  -3   0    5.14    0.40 
  -7  -3   0    5.25    0.40 
  -7  -3   0    4.56    0.35 
  -7  -3   1    4.85    0.39 
  -7  -3   1    4.69    0.39 
  -7  -3   1    4.66    0.36 
  -7  -3   2   10.93    0.50 
  -7  -3   2   10.46    0.49 
  -7  -3   2   10.41    0.48 
  -7  -3   3   14.69    0.54 
  -7  -3   3   15.51    0.54 
  -7  -3   3   13.87    0.55 
  -7  -3   4   26.37    0.65 
  -7  -3   4   26.36    0.65 
  -7  -3   5    0.57    0.15 
  -7  -2  -7   14.70    0.37 
  -7  -2  -7   14.13    0.38 
  -7  -2  -6    0.13    0.18 
  -7  -2  -6    0.16    0.15 
  -7  -2  -5    6.50    0.41 
  -7  -2  -5    5.60    0.35 
  -7  -2  -4    2.55    0.30 
  -7  -2  -4    2.55    0.29 
  -7  -2  -3    2.61    0.32 
  -7  -2  -3    2.71    0.30 
  -7  -2  -2   35.97    0.92 
  -7  -2  -1    3.84    0.40 
  -7  -2   0    0.05    0.29 
  -7  -2   3   16.39    0.67 
  -7  -2   4   19.36    0.56 
  -7  -1  -6    1.06    0.25 
  -7  -1  -5   -0.07    0.20 
  -7  -1  -5    0.14    0.27 
  -7  -1  -4    0.19    0.23 
  -7  -1  -4    0.05    0.29 
  -7  -1  -3    5.68    0.56 
  -7  -1  -3    4.00    0.34 
  -7  -1  -2    0.17    0.31 
  -7  -1  -2    0.08    0.31 
  -7  -1  -2    0.07    0.27 
  -7  -1  -1   46.39    1.00 
  -7  -1  -1   46.99    1.00 
  -7  -1  -1   45.95    1.08 
  -7  -1   0    9.06    0.48 
  -7  -1   0    8.35    0.47 
  -7  -1   1   56.26    1.08 
  -7  -1   1   56.93    1.07 
  -7  -1   2   16.76    0.57 
  -7  -1   2   16.49    0.57 
  -7  -1   3   20.79    0.60 
  -7  -1   3   20.59    0.60 
  -7  -1   4   59.90    0.99 
  -7  -1   4   58.76    0.99 
  -7  -1   5   11.93    0.41 
  -7   0  -7   24.29    0.49 
  -7   0  -6    0.01    0.21 
  -7   0  -6    0.12    0.15 
  -7   0  -5    8.60    0.43 
  -7   0  -5    7.44    0.48 
  -7   0  -4    1.17    0.31 
  -7   0  -4    1.25    0.40 
  -7   0  -4    0.99    0.23 
  -7   0  -3   10.69    0.52 
  -7   0  -3    8.89    0.47 
  -7   0  -2   38.01    0.95 
  -7   0  -1   15.40    0.56 
  -7   0  -1   14.56    0.55 
  -7   0  -1   13.38    0.57 
  -7   0   0    0.15    0.26 
  -7   0   0   -0.02    0.26 
  -7   0   0    0.05    0.23 
  -7   0   1    9.45    0.44 
  -7   0   1    8.93    0.43 
  -7   0   2   42.65    0.83 
  -7   0   2   41.59    0.82 
  -7   1  -6    3.71    0.30 
  -7   1  -5    2.97    0.29 
  -7   1  -5    2.38    0.35 
  -7   1  -4    0.09    0.17 
  -7   1  -4    0.18    0.25 
  -7   1  -4    0.23    0.34 
  -7   1  -3    4.64    0.38 
  -7   1  -3    3.65    0.30 
  -7   1  -2    1.24    0.52 
  -7   1  -1    0.33    0.42 
  -7   2  -6    5.89    0.28 
  -7   2  -5    6.02    0.36 
  -7   2  -4   12.39    0.46 
  -7   2  -3    0.57    0.25 
  -7   2  -2    5.08    0.36 
  -7   2  -2    7.12    0.50 
  -7   2  -1   17.14    0.64 
  -7   3  -3    3.69    0.35 
  -7   3  -2    4.62    0.36 
  -6  -7  -1    2.75    0.28 
  -6  -7  -1    1.65    0.31 
  -6  -7   0    0.20    0.23 
  -6  -6  -4   19.81    0.49 
  -6  -6  -3    2.58    0.27 
  -6  -6  -3    2.08    0.38 
  -6  -6  -3    2.42    0.40 
  -6  -6  -2    1.14    0.37 
  -6  -6  -2    1.02    0.36 
  -6  -6  -1   11.29    0.51 
  -6  -6  -1    6.32    0.51 
  -6  -6   0    9.03    0.49 
  -6  -6   0    9.55    0.53 
  -6  -6   0    9.19    0.53 
  -6  -6   1    0.01    0.32 
  -6  -6   1   -0.05    0.31 
  -6  -6   1    0.37    0.30 
  -6  -6   1    0.03    0.31 
  -6  -6   2    3.24    0.41 
  -6  -6   5    0.34    0.11 
  -6  -5  -7   14.46    0.32 
  -6  -5  -6    5.67    0.29 
  -6  -5  -6    5.19    0.40 
  -6  -5  -5   37.04    0.90 
  -6  -5  -5   35.93    0.90 
  -6  -5  -4    8.79    0.42 
  -6  -5  -3   40.30    1.48 
  -6  -5  -3   36.42    1.49 
  -6  -5  -2    0.45    0.21 
  -6  -5  -2    0.09    0.41 
  -6  -5  -2   -0.01    0.42 
  -6  -5  -2    0.20    0.26 
  -6  -5  -1    2.35    0.28 
  -6  -5  -1    2.89    0.46 
  -6  -5  -1    2.88    0.46 
  -6  -5  -1    2.48    0.36 
  -6  -5  -1    2.31    0.36 
  -6  -5  -1    2.50    0.33 
  -6  -5  -1    2.58    0.40 
  -6  -5   0   13.48    0.88 
  -6  -5   0   12.97    0.87 
  -6  -5   0   23.25    0.68 
  -6  -5   0   23.77    0.69 
  -6  -5   0   24.98    0.80 
  -6  -5   0   23.56    0.67 
  -6  -5   0   14.29    0.75 
  -6  -5   1    0.90    0.44 
  -6  -5   1    0.83    0.42 
  -6  -5   1    2.21    0.33 
  -6  -5   1    2.36    0.33 
  -6  -5   1    3.15    0.43 
  -6  -5   1    1.18    0.41 
  -6  -5   1    2.60    0.31 
  -6  -5   2   37.10    0.87 
  -6  -5   2   37.54    0.87 
  -6  -5   2   37.55    0.91 
  -6  -5   3   -0.09    0.25 
  -6  -5   3   -0.16    0.26 
  -6  -5   4    0.23    0.28 
  -6  -5   5    0.92    0.25 
  -6  -5   6    0.85    0.14 
  -6  -4  -8    0.55    0.14 
  -6  -4  -7    7.02    0.33 
  -6  -4  -7    8.00    0.45 
  -6  -4  -6   20.04    0.55 
  -6  -4  -6   17.40    0.71 
  -6  -4  -6   24.43    0.77 
  -6  -4  -6   22.87    0.66 
  -6  -4  -5   22.06    0.63 
  -6  -4  -5   20.03    0.77 
  -6  -4  -5   27.35    0.83 
  -6  -4  -5   27.02    0.83 
  -6  -4  -5   22.04    0.66 
  -6  -4  -4   18.12    0.62 
  -6  -4  -4   18.68    0.76 
  -6  -4  -4   18.20    0.63 
  -6  -4  -3    3.36    0.59 
  -6  -4  -3    2.24    0.58 
  -6  -4  -3    5.86    0.41 
  -6  -4  -3    5.13    0.39 
  -6  -4  -2  645.30    4.75 
  -6  -4  -2  713.31    4.68 
  -6  -4  -1    1.42    0.53 
  -6  -4  -1    1.31    0.53 
  -6  -4  -1    3.81    0.43 
  -6  -4  -1    3.54    0.42 
  -6  -4  -1    3.98    0.38 
  -6  -4  -1    3.76    0.43 
  -6  -4  -1    4.14    0.37 
  -6  -4   0    1.37    0.43 
  -6  -4   0    1.40    0.44 
  -6  -4   0    0.97    0.34 
  -6  -4   0    1.08    0.34 
  -6  -4   0    0.90    0.31 
  -6  -4   0    1.18    0.40 
  -6  -4   0    1.21    0.28 
  -6  -4   1   10.09    0.53 
  -6  -4   1   10.48    0.54 
  -6  -4   1   10.26    0.61 
  -6  -4   1   10.11    0.52 
  -6  -4   2   35.87    0.90 
  -6  -4   2   35.61    0.90 
  -6  -4   2   36.98    0.95 
  -6  -4   3    4.65    0.41 
  -6  -4   3    3.79    0.38 
  -6  -4   3    5.07    0.48 
  -6  -4   3    4.20    0.40 
  -6  -4   4    4.27    0.37 
  -6  -4   4    3.74    0.35 
  -6  -4   4    4.33    0.40 
  -6  -4   4    3.81    0.36 
  -6  -4   5    1.55    0.32 
  -6  -4   5    1.27    0.26 
  -6  -4   5    1.32    0.26 
  -6  -4   6   -0.12    0.23 
  -6  -4   7    2.92    0.18 
  -6  -3  -9   13.68    0.29 
  -6  -3  -8    6.02    0.27 
  -6  -3  -7    3.08    0.27 
  -6  -3  -7    3.41    0.38 
  -6  -3  -7    4.07    0.40 
  -6  -3  -6    4.01    0.33 
  -6  -3  -6    4.58    0.47 
  -6  -3  -6    5.10    0.47 
  -6  -3  -5   23.71    0.87 
  -6  -3  -5   25.08    0.76 
  -6  -3  -4   55.44    1.36 
  -6  -3  -4   59.15    1.21 
  -6  -3  -3   23.91    0.78 
  -6  -3  -3   27.35    0.84 
  -6  -3  -3   28.00    0.85 
  -6  -3  -3   23.97    0.91 
  -6  -3  -3   21.84    0.90 
  -6  -3  -2    2.48    0.33 
  -6  -3  -2    0.30    0.52 
  -6  -3  -2    0.45    0.53 
  -6  -3  -2    3.07    0.40 
  -6  -3  -2    3.03    0.41 
  -6  -3  -1    2.08    0.38 
  -6  -3  -1    2.62    0.33 
  -6  -3  -1    3.09    0.39 
  -6  -3  -1    3.21    0.39 
  -6  -3  -1    0.21    0.51 
  -6  -3  -1    0.56    0.52 
  -6  -3   0   11.81    0.57 
  -6  -3   0   11.42    0.57 
  -6  -3   0   11.87    0.60 
  -6  -3   0   11.93    0.58 
  -6  -3   1   10.87    0.54 
  -6  -3   1   10.66    0.55 
  -6  -3   1   12.32    0.64 
  -6  -3   1   10.42    0.54 
  -6  -3   2   11.39    0.57 
  -6  -3   2   11.40    0.57 
  -6  -3   2   12.65    0.66 
  -6  -3   2   11.37    0.57 
  -6  -3   3    0.53    0.31 
  -6  -3   3    0.36    0.30 
  -6  -3   3    0.56    0.39 
  -6  -3   3    0.36    0.30 
  -6  -3   4    0.14    0.29 
  -6  -3   4    0.32    0.28 
  -6  -3   4    0.11    0.26 
  -6  -3   4    0.33    0.29 
  -6  -3   5    7.99    0.44 
  -6  -3   5    7.28    0.44 
  -6  -3   5    7.64    0.44 
  -6  -3   5    7.88    0.45 
  -6  -3   6    1.23    0.25 
  -6  -3   6    1.15    0.25 
  -6  -3   6    1.31    0.29 
  -6  -3   7    0.21    0.15 
  -6  -2  -9    1.89    0.15 
  -6  -2  -8    1.95    0.25 
  -6  -2  -8    3.18    0.33 
  -6  -2  -7    5.25    0.38 
  -6  -2  -7    7.39    0.49 
  -6  -2  -6    6.64    0.46 
  -6  -2  -6    6.19    0.58 
  -6  -2  -5   55.25    1.36 
  -6  -2  -5   58.06    1.33 
  -6  -2  -4   59.50    1.35 
  -6  -2  -4   60.74    1.41 
  -6  -2  -3    0.69    0.26 
  -6  -2  -3    0.44    0.32 
  -6  -2  -3    0.47    0.46 
  -6  -2  -3    0.67    0.42 
  -6  -2  -2    3.14    0.35 
  -6  -2  -2    3.02    0.37 
  -6  -2  -2    3.70    0.56 
  -6  -2  -2    2.68    0.45 
  -6  -2  -1    4.92    0.42 
  -6  -2  -1    5.26    0.42 
  -6  -2   0   63.68    1.20 
  -6  -2   0   62.49    1.29 
  -6  -2   1    1.12    0.35 
  -6  -2   1    1.80    0.40 
  -6  -2   1    1.27    0.45 
  -6  -2   2   40.59    1.05 
  -6  -2   2   34.88    0.92 
  -6  -2   3    3.16    0.38 
  -6  -2   4    8.07    0.49 
  -6  -2   5    0.31    0.26 
  -6  -2   6    0.11    0.22 
  -6  -2   7    1.52    0.26 
  -6  -2   8    5.45    0.22 
  -6  -1  -8    0.01    0.24 
  -6  -1  -7    4.24    0.34 
  -6  -1  -7    6.20    0.47 
  -6  -1  -6   28.84    0.81 
  -6  -1  -6   30.49    1.06 
  -6  -1  -5    0.17    0.41 
  -6  -1  -5    0.05    0.43 
  -6  -1  -5    0.25    0.29 
  -6  -1  -5   -0.21    0.42 
  -6  -1  -4   20.95    0.86 
  -6  -1  -4   21.24    0.89 
  -6  -1  -4   22.89    0.89 
  -6  -1  -3    0.31    0.44 
  -6  -1  -3    0.83    0.48 
  -6  -1  -2    0.40    0.40 
  -6  -1  -2    0.62    0.28 
  -6  -1  -1   11.56    0.60 
  -6  -1  -1   10.06    0.52 
  -6  -1   0   20.67    0.76 
  -6  -1   0   18.40    0.68 
  -6  -1   1   38.69    1.03 
  -6  -1   1   35.12    0.93 
  -6  -1   2   69.91    1.39 
  -6  -1   2   78.19    1.34 
  -6  -1   2   78.57    1.34 
  -6  -1   2   70.35    1.29 
  -6  -1   3  111.57    1.98 
  -6  -1   3  123.50    1.93 
  -6  -1   3  123.37    1.94 
  -6  -1   3  111.40    1.92 
  -6  -1   4    3.58    0.41 
  -6  -1   4    3.36    0.40 
  -6  -1   4    3.63    0.38 
  -6  -1   4    3.70    0.40 
  -6  -1   5    2.51    0.34 
  -6  -1   5    2.44    0.34 
  -6  -1   5    2.73    0.34 
  -6  -1   6    0.33    0.24 
  -6  -1   6    0.73    0.27 
  -6  -1   6    0.60    0.27 
  -6  -1   7    9.50    0.38 
  -6  -1   7    9.10    0.38 
  -6   0  -8   31.76    0.71 
  -6   0  -7    0.22    0.27 
  -6   0  -7    0.07    0.31 
  -6   0  -6   15.76    0.70 
  -6   0  -5    5.66    0.41 
  -6   0  -5    7.95    0.61 
  -6   0  -4    4.56    0.53 
  -6   0  -4    4.59    0.57 
  -6   0  -4    2.84    0.36 
  -6   0  -3   69.46    1.54 
  -6   0  -3   69.90    1.57 
  -6   0  -2    7.54    0.49 
  -6   0  -2    8.00    0.59 
  -6   0  -2    7.58    0.50 
  -6   0  -2    7.44    0.49 
  -6   0  -2    6.24    0.42 
  -6   0  -1    0.02    0.24 
  -6   0  -1   -0.03    0.33 
  -6   0  -1    0.05    0.30 
  -6   0  -1   -0.04    0.29 
  -6   0  -1   -0.11    0.50 
  -6   0  -1   -0.21    0.26 
  -6   0   0   55.07    1.08 
  -6   0   0   54.77    1.08 
  -6   0   1   56.88    1.25 
  -6   0   1   61.06    1.14 
  -6   0   1   61.66    1.15 
  -6   0   1   46.98    1.05 
  -6   0   1   43.43    1.42 
  -6   0   2   47.24    1.07 
  -6   0   2   51.30    1.03 
  -6   0   2   51.94    1.03 
  -6   0   2   47.68    0.97 
  -6   0   3   37.25    0.97 
  -6   0   3   40.28    0.93 
  -6   0   3   40.17    0.93 
  -6   0   3   39.60    0.94 
  -6   0   4    8.19    0.50 
  -6   0   4    9.53    0.49 
  -6   0   4    9.05    0.49 
  -6   0   4    9.52    0.50 
  -6   0   5    2.53    0.33 
  -6   0   5    2.70    0.32 
  -6   0   5    2.65    0.32 
  -6   0   6    6.21    0.38 
  -6   0   6    7.03    0.37 
  -6   0   7    0.03    0.19 
  -6   1  -9   -0.02    0.07 
  -6   1  -8    8.96    0.35 
  -6   1  -7    0.57    0.25 
  -6   1  -7    0.35    0.31 
  -6   1  -6    1.74    0.35 
  -6   1  -6    2.12    0.34 
  -6   1  -6    1.73    0.42 
  -6   1  -5    2.95    0.41 
  -6   1  -5    3.01    0.49 
  -6   1  -4   11.81    0.64 
  -6   1  -4   10.19    0.69 
  -6   1  -3    0.01    0.38 
  -6   1  -2   36.94    0.90 
  -6   1  -2   35.82    0.91 
  -6   1  -2   35.45    0.97 
  -6   1  -1   19.75    0.71 
  -6   1  -1   20.51    0.66 
  -6   1  -1   21.10    0.66 
  -6   1   0   69.01    1.35 
  -6   1   0   71.03    1.22 
  -6   1   0   70.04    1.23 
  -6   1   1   24.37    0.68 
  -6   1   1   24.83    0.69 
  -6   1   2   35.11    0.80 
  -6   1   2   35.95    0.80 
  -6   1   3   84.07    1.29 
  -6   1   3   82.33    1.33 
  -6   1   3   84.36    1.29 
  -6   1   4   10.64    0.59 
  -6   1   4   17.22    0.59 
  -6   1   5    1.17    0.26 
  -6   1   6   12.33    0.47 
  -6   1   7    0.12    0.18 
  -6   2  -7    3.23    0.33 
  -6   2  -7    2.64    0.26 
  -6   2  -6    7.76    0.50 
  -6   2  -6    7.49    0.43 
  -6   2  -5    0.22    0.40 
  -6   2  -4   22.63    0.88 
  -6   2  -4   16.12    0.61 
  -6   2  -3   58.83    1.28 
  -6   2  -3   42.30    1.00 
  -6   2  -2   16.00    0.71 
  -6   2  -2   12.81    0.53 
  -6   2  -1   -0.03    0.32 
  -6   2  -1    0.24    0.20 
  -6   2   0   23.31    1.05 
  -6   2   0   31.74    0.87 
  -6   2   1   85.80    1.48 
  -6   2   1   69.72    1.27 
  -6   3  -7    7.75    0.34 
  -6   3  -6    2.65    0.33 
  -6   3  -6    2.53    0.28 
  -6   3  -5    0.06    0.34 
  -6   3  -5    0.06    0.25 
  -6   3  -3    2.00    0.60 
  -6   3  -2    2.34    0.49 
  -6   3  -2    2.03    0.38 
  -6   3  -1    1.25    0.46 
  -6   3  -1    0.42    0.45 
  -6   3  -1    0.84    0.32 
  -6   3   0    0.43    0.40 
  -6   3   0    0.48    0.30 
  -6   3   1   13.33    0.56 
  -6   4  -6    2.68    0.27 
  -6   4  -5    6.45    0.37 
  -6   4  -4    0.57    0.25 
  -6   4  -3    8.94    0.56 
  -6   4  -2   12.30    0.63 
  -6   4  -2   14.31    0.65 
  -6   4  -1    1.54    0.41 
  -6   4  -1    0.96    0.31 
  -6   4   0    4.70    0.43 
  -6   5  -4    5.55    0.33 
  -6   5  -3    7.37    0.39 
  -6   5  -2    0.06    0.28 
  -6   5  -1    5.17    0.37 
  -6   5   0   27.34    0.75 
  -5  -8  -3    1.37    0.22 
  -5  -8  -2   -0.04    0.23 
  -5  -8  -1    0.06    0.22 
  -5  -8  -1   -0.05    0.23 
  -5  -8   1   11.77    0.41 
  -5  -8   2    7.82    0.32 
  -5  -7  -5    3.22    0.34 
  -5  -7  -5    3.63    0.34 
  -5  -7  -3    0.72    0.31 
  -5  -7  -3    0.33    0.29 
  -5  -7  -3    0.63    0.32 
  -5  -7  -2   -0.13    0.33 
  -5  -7  -2    0.15    0.30 
  -5  -7  -2    0.26    0.32 
  -5  -7  -2   -0.25    0.34 
  -5  -7  -2   -0.06    0.33 
  -5  -7  -1   15.01    0.64 
  -5  -7  -1   15.84    0.65 
  -5  -7  -1   17.09    0.63 
  -5  -7  -1   16.61    0.65 
  -5  -7   0   12.57    0.57 
  -5  -7   1    0.17    0.33 
  -5  -7   1    0.09    0.32 
  -5  -7   1    0.01    0.30 
  -5  -7   2    1.94    0.34 
  -5  -7   2    1.94    0.34 
  -5  -7   2    2.37    0.33 
  -5  -7   3   12.74    0.48 
  -5  -7   4   13.35    0.44 
  -5  -7   5    2.18    0.18 
  -5  -6  -6    0.10    0.29 
  -5  -6  -6    0.13    0.28 
  -5  -6  -6    0.13    0.30 
  -5  -6  -5   23.31    0.75 
  -5  -6  -5   24.38    0.77 
  -5  -6  -4   -0.03    0.34 
  -5  -6  -4    0.20    0.33 
  -5  -6  -4    0.10    0.21 
  -5  -6  -4    0.51    0.33 
  -5  -6  -4    0.40    0.31 
  -5  -6  -3    5.96    0.50 
  -5  -6  -3    7.86    0.52 
  -5  -6  -3    8.03    0.52 
  -5  -6  -3    6.47    0.37 
  -5  -6  -2    0.06    0.38 
  -5  -6  -2   -0.02    0.37 
  -5  -6  -2    0.16    0.42 
  -5  -6  -2    0.17    0.42 
  -5  -6  -2    0.14    0.38 
  -5  -6  -2    0.23    0.30 
  -5  -6  -2    0.19    0.33 
  -5  -6  -2   -0.13    0.35 
  -5  -6  -2    0.13    0.24 
  -5  -6  -1    0.06    0.38 
  -5  -6  -1    0.13    0.37 
  -5  -6  -1    0.48    0.44 
  -5  -6  -1    0.50    0.44 
  -5  -6  -1    0.11    0.38 
  -5  -6  -1    0.33    0.32 
  -5  -6  -1    0.50    0.27 
  -5  -6   0    3.20    0.44 
  -5  -6   0    3.04    0.44 
  -5  -6   0    2.89    0.53 
  -5  -6   0    2.74    0.52 
  -5  -6   0    3.10    0.41 
  -5  -6   0    3.49    0.47 
  -5  -6   1    1.24    0.49 
  -5  -6   1    1.58    0.50 
  -5  -6   2    0.47    0.38 
  -5  -6   2    0.63    0.39 
  -5  -6   2    1.44    0.36 
  -5  -6   2    2.09    0.42 
  -5  -6   2    1.64    0.38 
  -5  -6   3    3.58    0.43 
  -5  -6   3    4.11    0.41 
  -5  -6   4   10.01    0.49 
  -5  -6   4    9.19    0.52 
  -5  -6   5   19.17    0.57 
  -5  -6   6    1.09    0.18 
  -5  -5  -8    2.65    0.24 
  -5  -5  -7   35.55    0.82 
  -5  -5  -7   34.75    0.80 
  -5  -5  -6    0.32    0.38 
  -5  -5  -6    1.40    0.37 
  -5  -5  -6    1.48    0.36 
  -5  -5  -6    1.57    0.30 
  -5  -5  -5  157.01    2.17 
  -5  -5  -5  157.21    2.16 
  -5  -5  -4    5.14    0.60 
  -5  -5  -4    3.77    0.60 
  -5  -5  -4    3.26    0.61 
  -5  -5  -4   10.39    0.57 
  -5  -5  -4   10.31    0.58 
  -5  -5  -4    9.81    0.51 
  -5  -5  -4    8.63    0.45 
  -5  -5  -4    7.60    0.50 
  -5  -5  -3    1.33    0.40 
  -5  -5  -3    0.64    0.39 
  -5  -5  -3    0.69    0.37 
  -5  -5  -3    1.06    0.38 
  -5  -5  -3    0.85    0.28 
  -5  -5  -2    4.41    0.41 
  -5  -5  -2    5.16    0.43 
  -5  -5  -2    5.66    0.45 
  -5  -5  -2    4.80    0.51 
  -5  -5  -2    4.77    0.51 
  -5  -5  -2    1.89    0.57 
  -5  -5  -2    1.69    0.55 
  -5  -5  -2    4.01    0.51 
  -5  -5  -2    5.28    0.54 
  -5  -5  -2    5.62    0.65 
  -5  -5  -2    5.78    0.68 
  -5  -5  -2    5.27    0.40 
  -5  -5  -1    2.17    0.38 
  -5  -5  -1    2.17    0.45 
  -5  -5  -1    2.32    0.45 
  -5  -5  -1    1.76    0.51 
  -5  -5  -1    1.80    0.51 
  -5  -5  -1    1.71    0.45 
  -5  -5  -1    1.95    0.33 
  -5  -5  -1    1.89    0.34 
  -5  -5  -1    1.75    0.33 
  -5  -5   0   12.77    0.70 
  -5  -5   0   13.35    0.59 
  -5  -5   0   10.67    0.51 
  -5  -5   0   12.47    0.63 
  -5  -5   0   11.17    0.65 
  -5  -5   0   12.30    0.68 
  -5  -5   0   11.11    0.51 
  -5  -5   0   11.72    0.53 
  -5  -5   0   10.62    0.81 
  -5  -5   0   11.01    0.82 
  -5  -5   0   12.43    0.79 
  -5  -5   1    4.92    0.40 
  -5  -5   1    4.82    0.48 
  -5  -5   1    5.06    0.48 
  -5  -5   1    3.75    0.52 
  -5  -5   1    5.55    0.42 
  -5  -5   1    5.96    0.55 
  -5  -5   1    4.99    0.40 
  -5  -5   1    6.01    0.55 
  -5  -5   1    5.94    0.55 
  -5  -5   2   20.80    0.85 
  -5  -5   2   25.83    0.80 
  -5  -5   2   19.92    0.88 
  -5  -5   2   20.12    0.89 
  -5  -5   2   24.85    0.71 
  -5  -5   2   24.12    0.71 
  -5  -5   3   13.46    0.55 
  -5  -5   3   14.45    0.65 
  -5  -5   3   11.91    0.69 
  -5  -5   3   13.83    0.55 
  -5  -5   3   13.15    0.63 
  -5  -5   3   14.08    0.69 
  -5  -5   3   12.90    0.62 
  -5  -5   3   15.07    0.68 
  -5  -5   4    8.05    0.54 
  -5  -5   4    8.83    0.45 
  -5  -5   4    8.47    0.44 
  -5  -5   4    8.05    0.57 
  -5  -5   4    9.51    0.54 
  -5  -5   5   13.30    0.48 
  -5  -5   5   15.79    0.60 
  -5  -5   5   14.75    0.54 
  -5  -5   5   12.80    0.62 
  -5  -5   6    1.14    0.29 
  -5  -5   7    0.19    0.15 
  -5  -4  -9    0.24    0.17 
  -5  -4  -9    0.06    0.21 
  -5  -4  -8    1.96    0.28 
  -5  -4  -8    1.53    0.32 
  -5  -4  -8    1.60    0.35 
  -5  -4  -7    7.91    0.68 
  -5  -4  -7    7.76    0.46 
  -5  -4  -7    6.97    0.53 
  -5  -4  -6    0.76    0.53 
  -5  -4  -6    0.78    0.33 
  -5  -4  -6    0.47    0.37 
  -5  -4  -6    0.53    0.38 
  -5  -4  -6    0.30    0.43 
  -5  -4  -5   80.52    1.71 
  -5  -4  -5   83.62    1.96 
  -5  -4  -5   83.90    1.63 
  -5  -4  -4    0.09    0.38 
  -5  -4  -4    0.32    0.43 
  -5  -4  -4    0.08    0.39 
  -5  -4  -4    0.29    0.22 
  -5  -4  -4    0.30    0.32 
  -5  -4  -4    0.20    0.43 
  -5  -4  -4    0.55    0.36 
  -5  -4  -4    0.30    0.35 
  -5  -4  -3    0.76    0.37 
  -5  -4  -3    0.97    0.39 
  -5  -4  -3    1.85    0.39 
  -5  -4  -3    1.61    0.38 
  -5  -4  -3    1.36    0.26 
  -5  -4  -3    0.96    0.38 
  -5  -4  -3    1.54    0.34 
  -5  -4  -3    1.54    0.43 
  -5  -4  -2   25.10    0.96 
  -5  -4  -2   33.67    0.89 
  -5  -4  -2   34.70    1.04 
  -5  -4  -2   32.00    1.02 
  -5  -4  -2   29.53    0.84 
  -5  -4  -2   28.76    0.84 
  -5  -4  -2   26.59    0.88 
  -5  -4  -2   29.08    0.82 
  -5  -4  -2   29.68    0.81 
  -5  -4  -2   27.98    0.93 
  -5  -4  -1   29.50    0.82 
  -5  -4  -1   34.08    0.90 
  -5  -4  -1   31.18    1.00 
  -5  -4  -1   30.30    0.98 
  -5  -4  -1   29.03    0.82 
  -5  -4  -1   28.96    0.84 
  -5  -4  -1   28.37    0.94 
  -5  -4  -1   30.50    0.83 
  -5  -4  -1   32.48    1.15 
  -5  -4   0    0.07    0.36 
  -5  -4   0    0.45    0.38 
  -5  -4   0   -0.03    0.38 
  -5  -4   0   -0.23    0.40 
  -5  -4   0   -0.15    0.32 
  -5  -4   0   -0.17    0.32 
  -5  -4   0    0.18    0.24 
  -5  -4   0   -0.04    0.41 
  -5  -4   0    0.03    0.28 
  -5  -4   0    0.17    0.34 
  -5  -4   1   19.61    0.68 
  -5  -4   1   22.12    0.84 
  -5  -4   1   22.70    0.83 
  -5  -4   1   19.53    0.77 
  -5  -4   1   20.09    0.77 
  -5  -4   1   22.04    0.73 
  -5  -4   1   21.13    0.97 
  -5  -4   1   22.06    0.75 
  -5  -4   1   20.90    0.84 
  -5  -4   1   20.25    0.69 
  -5  -4   2    2.47    0.48 
  -5  -4   2    2.78    0.39 
  -5  -4   2    3.17    0.49 
  -5  -4   2    2.76    0.47 
  -5  -4   2    3.23    0.47 
  -5  -4   2    3.11    0.46 
  -5  -4   2    2.94    0.38 
  -5  -4   2    2.71    0.38 
  -5  -4   3   53.54    1.21 
  -5  -4   3   57.92    1.27 
  -5  -4   3   51.98    1.25 
  -5  -4   3   46.67    1.13 
  -5  -4   3   46.15    1.13 
  -5  -4   3   51.00    1.13 
  -5  -4   3   52.70    1.33 
  -5  -4   3   50.06    1.11 
  -5  -4   4    2.45    0.41 
  -5  -4   4    1.17    0.48 
  -5  -4   4    2.52    0.43 
  -5  -4   4    2.32    0.42 
  -5  -4   4    2.03    0.40 
  -5  -4   4    2.24    0.38 
  -5  -4   4    1.88    0.37 
  -5  -4   5    8.19    0.50 
  -5  -4   5    8.30    0.53 
  -5  -4   5    7.37    0.47 
  -5  -4   5    7.82    0.48 
  -5  -4   6   45.87    1.03 
  -5  -4   6   46.15    1.04 
  -5  -4   7    1.46    0.29 
  -5  -4   7    1.43    0.26 
  -5  -4   7    1.42    0.25 
  -5  -4   8    4.02    0.23 
  -5  -3 -10   -0.02    0.13 
  -5  -3  -9    8.30    0.47 
  -5  -3  -9   12.97    0.45 
  -5  -3  -8   33.44    0.84 
  -5  -3  -8   34.53    0.90 
  -5  -3  -8   34.93    0.94 
  -5  -3  -7    2.27    0.47 
  -5  -3  -7    3.84    0.41 
  -5  -3  -7    3.67    0.61 
  -5  -3  -6   58.46    1.73 
  -5  -3  -6   58.86    1.30 
  -5  -3  -6   65.76    1.32 
  -5  -3  -6   64.36    1.32 
  -5  -3  -5   35.59    1.39 
  -5  -3  -5   34.96    1.11 
  -5  -3  -5   34.66    1.09 
  -5  -3  -5   34.21    1.10 
  -5  -3  -4  145.60    2.71 
  -5  -3  -4  169.60    2.38 
  -5  -3  -4  104.99    2.33 
  -5  -3  -4  146.93    2.29 
  -5  -3  -4   87.20    2.31 
  -5  -3  -3    1.60    0.39 
  -5  -3  -3    1.39    0.40 
  -5  -3  -3    0.95    0.36 
  -5  -3  -3    1.10    0.40 
  -5  -3  -3    2.04    0.45 
  -5  -3  -2    3.92    0.36 
  -5  -3  -2    4.79    0.42 
  -5  -3  -2    4.84    0.42 
  -5  -3  -2    5.73    0.53 
  -5  -3  -2    5.40    0.52 
  -5  -3  -2    4.40    0.50 
  -5  -3  -1   60.33    1.18 
  -5  -3  -1   56.89    1.31 
  -5  -3  -1   56.31    1.31 
  -5  -3  -1   55.57    1.11 
  -5  -3  -1   52.35    1.15 
  -5  -3  -1   50.30    1.08 
  -5  -3  -1   50.18    1.16 
  -5  -3  -1   56.02    1.11 
  -5  -3   0   24.42    0.83 
  -5  -3   0   24.02    0.83 
  -5  -3   0   20.28    0.81 
  -5  -3   0   21.00    0.83 
  -5  -3   0   21.82    0.69 
  -5  -3   0   20.84    0.73 
  -5  -3   0   21.20    0.79 
  -5  -3   0   21.78    0.69 
  -5  -3   1  111.94    1.85 
  -5  -3   1  112.66    1.86 
  -5  -3   1  111.52    1.71 
  -5  -3   1  111.27    1.70 
  -5  -3   1  112.87    1.83 
  -5  -3   2    1.68    0.35 
  -5  -3   2    1.85    0.36 
  -5  -3   2    1.90    0.45 
  -5  -3   2    1.47    0.34 
  -5  -3   2    1.36    0.41 
  -5  -3   2    1.39    0.41 
  -5  -3   2    1.65    0.44 
  -5  -3   3    0.30    0.31 
  -5  -3   3    0.14    0.30 
  -5  -3   3    0.12    0.30 
  -5  -3   3    0.34    0.35 
  -5  -3   3    0.15    0.37 
  -5  -3   4    0.62    0.35 
  -5  -3   4    1.25    0.36 
  -5  -3   4    0.40    0.42 
  -5  -3   4   -0.05    0.36 
  -5  -3   4    0.30    0.35 
  -5  -3   5    4.09    0.44 
  -5  -3   5    4.40    0.48 
  -5  -3   5    5.14    0.49 
  -5  -3   5    4.15    0.44 
  -5  -3   5    5.34    0.50 
  -5  -3   6   21.44    0.73 
  -5  -3   6   21.30    0.73 
  -5  -3   7   15.91    0.58 
  -5  -3   7   15.45    0.58 
  -5  -3   8    3.26    0.28 
  -5  -3   8    2.76    0.27 
  -5  -2  -9   -0.04    0.27 
  -5  -2  -9    0.11    0.23 
  -5  -2  -8   20.82    0.99 
  -5  -2  -8   19.13    0.71 
  -5  -2  -8   18.79    0.64 
  -5  -2  -7   36.23    1.16 
  -5  -2  -7   41.99    1.45 
  -5  -2  -7   37.66    1.07 
  -5  -2  -7   43.45    1.10 
  -5  -2  -7   43.84    1.05 
  -5  -2  -6   52.59    1.21 
  -5  -2  -6   52.45    1.34 
  -5  -2  -6   52.14    1.66 
  -5  -2  -5   31.13    1.06 
  -5  -2  -5   23.15    0.99 
  -5  -2  -5   22.46    0.99 
  -5  -2  -5   30.28    0.92 
  -5  -2  -5   31.42    1.32 
  -5  -2  -5   28.72    0.95 
  -5  -2  -5   33.49    1.05 
  -5  -2  -4   11.23    0.69 
  -5  -2  -4   10.55    0.70 
  -5  -2  -4    5.51    0.66 
  -5  -2  -4    6.47    0.65 
  -5  -2  -4   10.49    0.88 
  -5  -2  -4   10.45    0.60 
  -5  -2  -4   10.76    0.60 
  -5  -2  -4   10.16    0.66 
  -5  -2  -4    9.86    0.59 
  -5  -2  -4    9.70    0.57 
  -5  -2  -3   23.01    0.87 
  -5  -2  -3   23.24    0.75 
  -5  -2  -3   22.39    0.74 
  -5  -2  -3   22.97    0.88 
  -5  -2  -2   22.49    0.76 
  -5  -2  -2   24.61    0.89 
  -5  -2  -2   23.65    0.72 
  -5  -2  -2   28.36    0.93 
  -5  -2  -2   27.19    0.92 
  -5  -2  -2   23.13    0.71 
  -5  -2  -2   19.80    0.86 
  -5  -2  -1    5.43    0.53 
  -5  -2  -1    5.04    0.52 
  -5  -2  -1    5.34    0.39 
  -5  -2  -1    4.33    0.35 
  -5  -2  -1    4.68    0.40 
  -5  -2  -1    4.94    0.39 
  -5  -2   0   31.09    0.78 
  -5  -2   0   32.85    0.92 
  -5  -2   0   33.85    0.93 
  -5  -2   0   29.39    0.94 
  -5  -2   0   30.99    0.95 
  -5  -2   0   28.08    0.83 
  -5  -2   0   30.77    1.03 
  -5  -2   0   27.22    0.78 
  -5  -2   0   29.02    0.83 
  -5  -2   0   30.62    0.78 
  -5  -2   1   48.13    1.03 
  -5  -2   1   59.94    1.25 
  -5  -2   1   58.96    1.20 
  -5  -2   1   57.49    1.21 
  -5  -2   1   47.51    1.03 
  -5  -2   1   59.35    1.45 
  -5  -2   1   56.99    1.22 
  -5  -2   1   52.54    1.12 
  -5  -2   2   34.72    0.93 
  -5  -2   2   34.24    0.98 
  -5  -2   2   31.71    0.90 
  -5  -2   2   33.36    1.12 
  -5  -2   3    5.84    0.55 
  -5  -2   3    6.83    0.55 
  -5  -2   3    6.25    0.56 
  -5  -2   4    9.02    0.70 
  -5  -2   5    2.62    0.44 
  -5  -2   6   10.07    0.61 
  -5  -2   6   15.07    0.61 
  -5  -2   7   24.37    0.67 
  -5  -2   7   13.16    0.68 
  -5  -2   8    0.33    0.22 
  -5  -2   9   23.13    0.48 
  -5  -1 -10   37.11    0.64 
  -5  -1 -10   39.48    0.66 
  -5  -1  -9   10.55    0.50 
  -5  -1  -9    9.96    0.45 
  -5  -1  -9    8.88    0.45 
  -5  -1  -9    9.72    0.42 
  -5  -1  -8    3.02    0.39 
  -5  -1  -8    2.92    0.40 
  -5  -1  -8    3.13    0.36 
  -5  -1  -7   18.78    0.76 
  -5  -1  -7   17.53    0.72 
  -5  -1  -7   18.83    0.76 
  -5  -1  -6   56.85    1.76 
  -5  -1  -6   48.41    1.21 
  -5  -1  -6   55.82    1.39 
  -5  -1  -6   46.94    1.18 
  -5  -1  -6   44.91    1.17 
  -5  -1  -5  134.92    2.77 
  -5  -1  -5  119.47    2.01 
  -5  -1  -5  120.94    2.06 
  -5  -1  -5  112.42    1.97 
  -5  -1  -5  138.32    2.29 
  -5  -1  -4   42.09    1.08 
  -5  -1  -4   40.84    1.26 
  -5  -1  -4   43.71    1.19 
  -5  -1  -4   40.48    1.07 
  -5  -1  -3    5.41    0.56 
  -5  -1  -3    6.22    0.57 
  -5  -1  -3    4.35    0.55 
  -5  -1  -3    4.59    0.53 
  -5  -1  -3    4.41    0.41 
  -5  -1  -2    6.87    0.58 
  -5  -1  -2    7.12    0.58 
  -5  -1  -2    6.50    0.53 
  -5  -1  -2    6.83    0.56 
  -5  -1  -2    5.37    0.41 
  -5  -1  -2    5.51    0.54 
  -5  -1  -2    5.68    0.55 
  -5  -1   0   37.43    0.89 
  -5  -1   0   40.42    1.13 
  -5  -1   1   38.49    0.99 
  -5  -1   1   35.93    0.88 
  -5  -1   1   44.87    1.12 
  -5  -1   1   42.18    0.98 
  -5  -1   1   38.02    1.10 
  -5  -1   2    2.60    0.34 
  -5  -1   2    2.30    0.41 
  -5  -1   2    2.10    0.35 
  -5  -1   2    2.13    0.38 
  -5  -1   3    0.56    0.38 
  -5  -1   3    0.31    0.28 
  -5  -1   3    0.12    0.41 
  -5  -1   3    0.43    0.28 
  -5  -1   3    0.08    0.30 
  -5  -1   4   21.47    0.79 
  -5  -1   4   20.66    0.74 
  -5  -1   5    3.02    0.38 
  -5  -1   5    2.70    0.42 
  -5  -1   7    3.54    0.39 
  -5  -1   7    3.64    0.39 
  -5  -1   7    3.65    0.40 
  -5  -1   8    0.29    0.26 
  -5  -1   8    0.11    0.25 
  -5  -1   8   -0.01    0.21 
  -5  -1   9   -0.01    0.15 
  -5   0 -10    9.18    0.33 
  -5   0  -9    2.91    0.32 
  -5   0  -9    2.90    0.31 
  -5   0  -9    3.03    0.34 
  -5   0  -8    3.39    0.43 
  -5   0  -8    3.19    0.39 
  -5   0  -8    2.58    0.33 
  -5   0  -8    3.08    0.36 
  -5   0  -8    3.16    0.39 
  -5   0  -7   36.83    1.02 
  -5   0  -7   34.54    0.95 
  -5   0  -7   31.82    0.88 
  -5   0  -7   36.67    0.95 
  -5   0  -7   33.25    0.99 
  -5   0  -6   63.66    1.42 
  -5   0  -6   62.56    1.44 
  -5   0  -6   60.94    1.29 
  -5   0  -5   72.85    1.59 
  -5   0  -5   70.26    1.56 
  -5   0  -5   73.46    1.43 
  -5   0  -4   12.07    0.70 
  -5   0  -4   11.19    0.56 
  -5   0  -4   11.56    0.71 
  -5   0  -3    4.89    0.56 
  -5   0  -3    4.26    0.39 
  -5   0  -3    4.70    0.56 
  -5   0  -3    5.54    0.56 
  -5   0  -3    4.87    0.44 
  -5   0  -3    4.39    0.43 
  -5   0  -2   11.11    0.57 
  -5   0  -2    9.98    0.49 
  -5   0  -2    9.82    0.63 
  -5   0  -2   11.71    0.52 
  -5   0  -2   12.12    0.53 
  -5   0  -1   90.18    1.41 
  -5   0  -1   89.59    1.41 
  -5   0   0    1.42    0.26 
  -5   0   0    1.62    0.26 
  -5   0   0    1.78    0.44 
  -5   0   0    1.73    0.33 
  -5   0   0    1.74    0.29 
  -5   0   0    1.46    0.28 
  -5   0   1   52.93    1.19 
  -5   0   1   51.03    0.98 
  -5   0   1   50.65    0.97 
  -5   0   2    2.18    0.37 
  -5   0   2    2.63    0.33 
  -5   0   2    2.13    0.32 
  -5   0   2    2.82    0.47 
  -5   0   2    2.69    0.32 
  -5   0   2    2.40    0.33 
  -5   0   2    3.17    0.35 
  -5   0   3   15.80    0.59 
  -5   0   3   14.66    0.61 
  -5   0   3   15.47    0.63 
  -5   0   3   16.49    0.59 
  -5   0   4    0.05    0.28 
  -5   0   4   -0.06    0.29 
  -5   0   4   -0.09    0.42 
  -5   0   4    0.13    0.28 
  -5   0   4   -0.14    0.30 
  -5   0   5    1.67    0.33 
  -5   0   5    1.65    0.33 
  -5   0   5    1.55    0.33 
  -5   0   5    1.68    0.35 
  -5   0   6    3.39    0.39 
  -5   0   6    3.13    0.38 
  -5   0   7   18.61    0.64 
  -5   0   7   18.47    0.65 
  -5   0   8    7.79    0.39 
  -5   0   8    7.57    0.40 
  -5   0   9    1.00    0.17 
  -5   1  -9    1.24    0.24 
  -5   1  -9    1.45    0.26 
  -5   1  -8   12.92    0.54 
  -5   1  -8   15.17    0.58 
  -5   1  -7   37.05    1.05 
  -5   1  -7   37.89    0.98 
  -5   1  -7   31.92    0.91 
  -5   1  -7   32.56    0.99 
  -5   1  -7   31.41    0.94 
  -5   1  -6    1.53    0.33 
  -5   1  -6    1.13    0.33 
  -5   1  -6    1.84    0.41 
  -5   1  -6    1.68    0.42 
  -5   1  -6    1.33    0.45 
  -5   1  -6    1.43    0.49 
  -5   1  -6    1.09    0.29 
  -5   1  -5   70.80    1.37 
  -5   1  -5   69.55    1.36 
  -5   1  -5   82.09    1.55 
  -5   1  -5   84.53    1.63 
  -5   1  -5   67.94    1.56 
  -5   1  -5   67.59    1.50 
  -5   1  -5   70.93    1.59 
  -5   1  -4    8.11    0.59 
  -5   1  -4    7.94    0.63 
  -5   1  -4    8.84    0.56 
  -5   1  -4    8.34    0.68 
  -5   1  -4    8.29    0.69 
  -5   1  -4    8.03    0.48 
  -5   1  -3    0.05    0.33 
  -5   1  -3   -0.14    0.49 
  -5   1  -3   -0.51    0.49 
  -5   1  -3    0.31    0.42 
  -5   1  -2   25.85    0.82 
  -5   1  -2   27.45    0.74 
  -5   1  -2   26.96    0.74 
  -5   1  -2   28.44    0.95 
  -5   1  -1   55.96    1.32 
  -5   1  -1   52.92    1.37 
  -5   1  -1   53.26    1.21 
  -5   1   0   88.23    1.35 
  -5   1   0   93.89    1.68 
  -5   1   0   90.21    1.74 
  -5   1   0   92.60    1.56 
  -5   1   1  239.73    2.77 
  -5   1   1  224.45    2.93 
  -5   1   1  262.18    3.15 
  -5   1   1  242.21    3.16 
  -5   1   1  254.32    2.94 
  -5   1   1  237.25    2.76 
  -5   1   2  271.11    3.04 
  -5   1   2  266.46    3.14 
  -5   1   2  267.96    3.03 
  -5   1   3    4.02    0.35 
  -5   1   3    3.33    0.35 
  -5   1   3    3.94    0.37 
  -5   1   3    3.46    0.34 
  -5   1   4    5.26    0.38 
  -5   1   4    4.85    0.41 
  -5   1   4    4.92    0.42 
  -5   1   4    5.45    0.38 
  -5   1   5    0.14    0.26 
  -5   1   5    0.10    0.26 
  -5   1   5   -0.01    0.28 
  -5   1   5   -0.08    0.38 
  -5   1   5    0.23    0.37 
  -5   1   6   23.61    0.68 
  -5   1   6   21.59    0.74 
  -5   1   6   23.70    0.67 
  -5   1   7   13.84    0.61 
  -5   2  -8    0.19    0.27 
  -5   2  -8    0.35    0.25 
  -5   2  -8    0.19    0.27 
  -5   2  -8    0.70    0.29 
  -5   2  -8    0.41    0.30 
  -5   2  -7   19.49    0.66 
  -5   2  -7   19.01    0.66 
  -5   2  -7   17.03    0.75 
  -5   2  -7   18.20    0.66 
  -5   2  -7   19.70    0.71 
  -5   2  -7   19.46    0.75 
  -5   2  -7   19.17    0.73 
  -5   2  -6    9.84    0.54 
  -5   2  -6   10.17    0.56 
  -5   2  -6    8.01    0.61 
  -5   2  -6    9.89    0.57 
  -5   2  -6    9.35    0.63 
  -5   2  -6    9.73    0.58 
  -5   2  -6    9.41    0.65 
  -5   2  -5    3.55    0.43 
  -5   2  -5    3.18    0.42 
  -5   2  -5    3.22    0.47 
  -5   2  -5    3.64    0.57 
  -5   2  -5    4.10    0.53 
  -5   2  -5    3.57    0.48 
  -5   2  -5    3.34    0.45 
  -5   2  -4   68.03    1.59 
  -5   2  -4   61.72    1.55 
  -5   2  -4   65.46    1.37 
  -5   2  -4   55.62    1.32 
  -5   2  -4   56.55    1.32 
  -5   2  -3    9.29    0.66 
  -5   2  -3    8.32    0.53 
  -5   2  -2    0.16    0.52 
  -5   2  -2    0.31    0.51 
  -5   2  -2    0.10    0.41 
  -5   2  -2    0.35    0.40 
  -5   2  -1   77.20    1.62 
  -5   2  -1   74.21    1.68 
  -5   2  -1   74.96    1.47 
  -5   2   0   99.60    1.81 
  -5   2   0   94.88    1.89 
  -5   2   0   94.20    1.65 
  -5   2   1   85.43    1.55 
  -5   2   1   80.57    1.63 
  -5   2   1   81.17    1.45 
  -5   2   2   49.49    1.05 
  -5   2   3    4.61    0.39 
  -5   2   4    7.29    0.50 
  -5   2   4    7.83    0.47 
  -5   2   5    9.37    0.51 
  -5   2   6   -0.02    0.26 
  -5   2   7   32.85    0.80 
  -5   3  -8    0.11    0.26 
  -5   3  -8    0.14    0.19 
  -5   3  -8   -0.12    0.25 
  -5   3  -7    2.82    0.33 
  -5   3  -7    2.58    0.33 
  -5   3  -7    2.99    0.40 
  -5   3  -7    2.33    0.32 
  -5   3  -7    2.90    0.39 
  -5   3  -7    2.80    0.32 
  -5   3  -6    6.55    0.48 
  -5   3  -6    6.72    0.49 
  -5   3  -6    7.67    0.59 
  -5   3  -6    6.85    0.46 
  -5   3  -6    7.42    0.49 
  -5   3  -5   14.72    0.79 
  -5   3  -5   14.18    0.74 
  -5   3  -5   14.42    0.61 
  -5   3  -5   14.54    0.67 
  -5   3  -4    0.97    0.45 
  -5   3  -4    0.99    0.35 
  -5   3  -4    0.98    0.46 
  -5   3  -4    0.73    0.36 
  -5   3  -3   22.81    0.92 
  -5   3  -2   14.06    0.88 
  -5   3  -2   16.58    1.09 
  -5   3  -1   59.44    1.52 
  -5   3  -1   60.58    1.30 
  -5   3   0   30.96    1.24 
  -5   3   0   30.90    1.09 
  -5   3   0   28.06    1.01 
  -5   3   0   28.84    0.89 
  -5   3   1   57.00    1.55 
  -5   3   1   54.12    1.34 
  -5   3   1   53.93    1.17 
  -5   3   2   95.17    1.48 
  -5   3   2   92.73    1.62 
  -5   3   3   16.22    0.67 
  -5   3   3   15.68    0.92 
  -5   3   3   15.22    0.57 
  -5   3   4    7.29    0.54 
  -5   3   4    6.65    0.43 
  -5   3   5   19.56    0.72 
  -5   3   5   11.82    0.90 
  -5   3   6    2.14    0.45 
  -5   3   7    0.59    0.36 
  -5   4  -8    4.39    0.25 
  -5   4  -7    2.61    0.33 
  -5   4  -7    2.28    0.25 
  -5   4  -6    0.76    0.36 
  -5   4  -6    0.90    0.33 
  -5   4  -6    0.70    0.26 
  -5   4  -5   22.19    0.79 
  -5   4  -5   21.29    0.84 
  -5   4  -5   20.74    0.72 
  -5   4  -4   35.38    1.08 
  -5   4  -4   35.09    0.98 
  -5   4  -3    8.28    0.59 
  -5   4  -3    6.89    0.51 
  -5   4  -2  843.03   10.23 
  -5   4  -1   42.69    1.43 
  -5   4  -1   57.68    1.46 
  -5   4   0   66.26    1.48 
  -5   4   0   70.14    1.60 
  -5   4   0   66.54    1.37 
  -5   4   1    0.34    0.45 
  -5   4   1    0.74    0.33 
  -5   4   2    4.34    0.43 
  -5   4   3    2.36    0.68 
  -5   4   3    0.63    0.64 
  -5   4   4   -0.19    0.54 
  -5   4   4    0.02    0.55 
  -5   4   5    1.94    0.51 
  -5   4   5    0.05    0.54 
  -5   4   6    8.36    0.59 
  -5   5  -7    1.06    0.21 
  -5   5  -6    0.46    0.25 
  -5   5  -6    0.43    0.26 
  -5   5  -5    2.71    0.35 
  -5   5  -5    2.96    0.35 
  -5   5  -5    2.13    0.29 
  -5   5  -4    5.20    0.45 
  -5   5  -4    4.45    0.38 
  -5   5  -3    0.68    0.49 
  -5   5  -3    2.58    0.35 
  -5   5  -2    0.15    0.45 
  -5   5  -1    2.18    0.48 
  -5   5  -1    0.61    0.45 
  -5   5   0    8.14    0.62 
  -5   5   0    6.49    0.51 
  -5   5   1    0.38    0.40 
  -5   5   1    0.54    0.45 
  -5   5   1    0.19    0.32 
  -5   5   2    0.71    0.43 
  -5   5   2    1.92    0.37 
  -5   5   4    0.06    0.52 
  -5   5   5    0.32    0.54 
  -5   6  -4    4.90    0.34 
  -5   6  -4    4.29    0.32 
  -5   6  -3    8.84    0.47 
  -5   6  -3    5.08    0.40 
  -5   6  -2    0.62    0.26 
  -5   6  -1    2.95    0.42 
  -5   6   0    4.89    0.45 
  -5   6   2   10.28    0.64 
  -5   6   3    2.34    0.40 
  -5   7  -2    4.54    0.28 
  -5   7  -1   18.84    0.48 
  -4  -9  -2    2.72    0.24 
  -4  -9  -1    0.83    0.19 
  -4  -9   0    1.02    0.19 
  -4  -9   1    0.17    0.15 
  -4  -8  -5    9.06    0.39 
  -4  -8  -4    2.94    0.34 
  -4  -8  -4    3.06    0.33 
  -4  -8  -3    0.13    0.28 
  -4  -8  -3    0.28    0.27 
  -4  -8  -2    3.79    0.40 
  -4  -8  -2    3.83    0.39 
  -4  -8  -2    3.99    0.39 
  -4  -8  -1    2.93    0.39 
  -4  -8  -1    2.88    0.39 
  -4  -8  -1    3.03    0.39 
  -4  -8  -1    3.22    0.39 
  -4  -8  -1    2.75    0.36 
  -4  -8   0    6.05    0.43 
  -4  -8   0    6.79    0.42 
  -4  -8   0    5.80    0.42 
  -4  -8   1   13.80    0.53 
  -4  -8   1   16.22    0.60 
  -4  -8   2   11.24    0.46 
  -4  -8   2   11.45    0.53 
  -4  -8   2   11.86    0.52 
  -4  -8   2   11.36    0.52 
  -4  -8   3    9.75    0.46 
  -4  -8   3    9.45    0.38 
  -4  -8   4   73.30    0.92 
  -4  -7  -6   13.36    0.51 
  -4  -7  -6   13.46    0.51 
  -4  -7  -5    0.82    0.35 
  -4  -7  -5    1.09    0.32 
  -4  -7  -5    0.83    0.32 
  -4  -7  -4    2.30    0.39 
  -4  -7  -4    2.19    0.38 
  -4  -7  -4    2.40    0.36 
  -4  -7  -4    2.40    0.35 
  -4  -7  -4    2.14    0.45 
  -4  -7  -4    2.62    0.48 
  -4  -7  -3   -0.22    0.33 
  -4  -7  -3   -0.03    0.33 
  -4  -7  -3    0.25    0.33 
  -4  -7  -2   14.10    0.68 
  -4  -7  -2   12.17    0.56 
  -4  -7  -2   13.42    0.67 
  -4  -7  -1   22.69    1.15 
  -4  -7  -1   20.92    1.12 
  -4  -7  -1   12.24    0.86 
  -4  -7  -1   13.58    0.87 
  -4  -7  -1   23.62    0.81 
  -4  -7  -1   25.15    0.89 
  -4  -7  -1   24.95    0.88 
  -4  -7   0    4.42    0.44 
  -4  -7   0    4.57    0.48 
  -4  -7   0    1.34    0.49 
  -4  -7   0    1.19    0.49 
  -4  -7   0    4.45    0.64 
  -4  -7   0    4.66    0.64 
  -4  -7   0    4.84    0.62 
  -4  -7   0    4.49    0.62 
  -4  -7   0    5.50    0.49 
  -4  -7   1    0.17    0.31 
  -4  -7   1    0.28    0.35 
  -4  -7   1    0.03    0.33 
  -4  -7   1    0.19    0.33 
  -4  -7   1    0.27    0.36 
  -4  -7   1    0.11    0.40 
  -4  -7   1    0.57    0.43 
  -4  -7   1    0.03    0.49 
  -4  -7   2    2.95    0.43 
  -4  -7   2    3.15    0.40 
  -4  -7   2    3.29    0.60 
  -4  -7   2    3.28    0.42 
  -4  -7   3   37.01    0.87 
  -4  -7   3   42.70    1.10 
  -4  -7   3   21.06    0.94 
  -4  -7   3   22.60    0.95 
  -4  -7   4    4.69    0.39 
  -4  -7   4    4.61    0.44 
  -4  -7   4    5.07    0.45 
  -4  -7   5   65.72    0.99 
  -4  -7   5   58.31    1.08 
  -4  -7   6    4.31    0.22 
  -4  -6  -8    0.17    0.24 
  -4  -6  -7    3.04    0.46 
  -4  -6  -7    3.34    0.36 
  -4  -6  -7    2.65    0.39 
  -4  -6  -7    3.44    0.35 
  -4  -6  -6   10.90    0.76 
  -4  -6  -6   10.07    0.58 
  -4  -6  -6   10.97    0.65 
  -4  -6  -6   12.54    0.58 
  -4  -6  -6   13.09    0.59 
  -4  -6  -5   -0.03    0.36 
  -4  -6  -5    0.42    0.34 
  -4  -6  -5    0.32    0.34 
  -4  -6  -5    0.43    0.32 
  -4  -6  -5    0.17    0.30 
  -4  -6  -5    0.25    0.46 
  -4  -6  -5   -0.03    0.36 
  -4  -6  -5   -0.05    0.57 
  -4  -6  -5    0.48    0.49 
  -4  -6  -4    6.23    0.73 
  -4  -6  -4    5.82    0.60 
  -4  -6  -4    6.49    0.47 
  -4  -6  -4    6.72    0.48 
  -4  -6  -4    5.92    0.64 
  -4  -6  -4    5.81    0.64 
  -4  -6  -4    6.16    0.52 
  -4  -6  -4    5.72    0.51 
  -4  -6  -3    0.65    0.35 
  -4  -6  -3    1.05    0.36 
  -4  -6  -3    0.75    0.31 
  -4  -6  -3    0.51    0.67 
  -4  -6  -3    0.77    0.46 
  -4  -6  -3    0.33    0.50 
  -4  -6  -3    0.26    0.39 
  -4  -6  -2   -0.07    0.29 
  -4  -6  -2   -0.04    0.36 
  -4  -6  -2    0.20    0.35 
  -4  -6  -2    0.15    0.50 
  -4  -6  -2    0.36    0.36 
  -4  -6  -2    0.30    0.45 
  -4  -6  -1    8.35    0.55 
  -4  -6  -1    6.78    0.60 
  -4  -6  -1    5.99    0.59 
  -4  -6  -1    7.94    0.60 
  -4  -6  -1    7.73    0.60 
  -4  -6  -1    6.47    0.50 
  -4  -6  -1    7.00    0.78 
  -4  -6  -1    7.49    0.75 
  -4  -6  -1    8.35    0.76 
  -4  -6  -1    8.17    0.74 
  -4  -6   0   17.20    0.75 
  -4  -6   0   15.33    0.82 
  -4  -6   0   17.94    0.76 
  -4  -6   0    8.94    0.74 
  -4  -6   0    8.21    0.74 
  -4  -6   0   16.45    1.01 
  -4  -6   0   16.37    0.99 
  -4  -6   0   16.07    0.98 
  -4  -6   0   17.39    1.02 
  -4  -6   1   36.83    0.94 
  -4  -6   1   34.30    0.99 
  -4  -6   1   25.95    1.10 
  -4  -6   1   34.65    1.23 
  -4  -6   1   23.00    1.10 
  -4  -6   1   36.30    1.06 
  -4  -6   1   24.09    1.10 
  -4  -6   1   32.34    0.97 
  -4  -6   1   31.27    0.97 
  -4  -6   1   36.48    1.45 
  -4  -6   1   31.26    1.27 
  -4  -6   1   31.55    1.29 
  -4  -6   1   31.66    0.84 
  -4  -6   2   34.09    0.91 
  -4  -6   2   23.51    0.98 
  -4  -6   2   23.29    0.99 
  -4  -6   2   19.83    0.96 
  -4  -6   2   19.67    0.97 
  -4  -6   2   24.60    1.08 
  -4  -6   2   25.74    1.08 
  -4  -6   2   30.29    0.91 
  -4  -6   2   27.58    0.78 
  -4  -6   2   20.93    1.04 
  -4  -6   3    7.87    0.81 
  -4  -6   3    5.07    0.57 
  -4  -6   3    4.79    0.54 
  -4  -6   3    7.97    0.54 
  -4  -6   3    7.32    0.47 
  -4  -6   3    3.34    0.60 
  -4  -6   3    9.49    0.60 
  -4  -6   4   35.85    0.92 
  -4  -6   4   34.43    1.41 
  -4  -6   4   34.61    1.02 
  -4  -6   5   15.88    0.60 
  -4  -6   5   14.23    0.63 
  -4  -6   5   13.41    0.87 
  -4  -6   6   11.25    0.55 
  -4  -6   7    1.18    0.18 
  -4  -5  -9    2.46    0.29 
  -4  -5  -9    2.05    0.21 
  -4  -5  -9    2.07    0.32 
  -4  -5  -9    1.82    0.31 
  -4  -5  -8    0.25    0.43 
  -4  -5  -8    0.36    0.30 
  -4  -5  -8    0.30    0.36 
  -4  -5  -8    0.55    0.24 
  -4  -5  -8    0.31    0.32 
  -4  -5  -7  131.99    1.87 
  -4  -5  -7  132.55    1.87 
  -4  -5  -7  119.89    2.42 
  -4  -5  -7  118.37    1.85 
  -4  -5  -7  130.32    1.81 
  -4  -5  -7  130.69    1.85 
  -4  -5  -7  132.42    2.01 
  -4  -5  -6    1.24    0.55 
  -4  -5  -6    1.34    0.46 
  -4  -5  -6    1.79    0.32 
  -4  -5  -6    1.45    0.55 
  -4  -5  -6    0.91    0.43 
  -4  -5  -6    1.79    0.38 
  -4  -5  -6    1.68    0.37 
  -4  -5  -5   31.42    1.07 
  -4  -5  -5   31.57    1.07 
  -4  -5  -5   43.08    1.00 
  -4  -5  -5   42.65    0.99 
  -4  -5  -5   30.25    1.06 
  -4  -5  -5   35.31    1.33 
  -4  -5  -5   42.53    1.14 
  -4  -5  -5   40.10    1.10 
  -4  -5  -5   41.24    0.96 
  -4  -5  -5   40.81    1.00 
  -4  -5  -5   37.64    1.06 
  -4  -5  -4    5.58    0.73 
  -4  -5  -4    6.13    0.62 
  -4  -5  -4    6.02    0.53 
  -4  -5  -4    6.24    0.43 
  -4  -5  -4    5.44    0.64 
  -4  -5  -4    6.63    0.48 
  -4  -5  -4    6.38    0.49 
  -4  -5  -4    5.78    0.53 
  -4  -5  -4    5.78    0.63 
  -4  -5  -4    5.72    0.64 
  -4  -5  -4    5.79    0.54 
  -4  -5  -3    6.51    0.49 
  -4  -5  -3    6.24    0.44 
  -4  -5  -3    6.89    0.50 
  -4  -5  -3    6.18    0.53 
  -4  -5  -3    5.88    0.42 
  -4  -5  -3    6.19    0.61 
  -4  -5  -3    6.53    0.75 
  -4  -5  -3    4.68    0.59 
  -4  -5  -3    5.71    0.52 
  -4  -5  -2   53.48    1.29 
  -4  -5  -2   60.26    1.19 
  -4  -5  -2   53.36    1.28 
  -4  -5  -2   50.57    1.55 
  -4  -5  -2   53.74    1.14 
  -4  -5  -2   54.09    1.23 
  -4  -5  -2   60.65    1.42 
  -4  -5  -2   54.54    1.08 
  -4  -5  -2   53.69    1.26 
  -4  -5  -1   36.69    0.99 
  -4  -5  -1   35.35    1.16 
  -4  -5  -1   37.32    0.96 
  -4  -5  -1   33.82    1.03 
  -4  -5  -1   34.98    1.04 
  -4  -5  -1   35.25    1.32 
  -4  -5  -1   37.12    1.29 
  -4  -5  -1   31.67    0.89 
  -4  -5  -1   35.41    0.86 
  -4  -5  -1   34.90    1.33 
  -4  -5  -1   36.42    1.34 
  -4  -5   0    0.15    0.28 
  -4  -5   0    0.40    0.33 
  -4  -5   0    0.27    0.32 
  -4  -5   0    0.29    0.37 
  -4  -5   0    0.51    0.38 
  -4  -5   0    0.04    0.50 
  -4  -5   0   -0.03    0.44 
  -4  -5   0    0.22    0.29 
  -4  -5   0    0.72    0.43 
  -4  -5   0    0.65    0.44 
  -4  -5   1    0.73    0.36 
  -4  -5   1    1.03    0.41 
  -4  -5   1    1.27    0.41 
  -4  -5   1    1.46    0.42 
  -4  -5   1    1.28    0.38 
  -4  -5   1    1.20    0.40 
  -4  -5   1    1.11    0.39 
  -4  -5   1    1.12    0.40 
  -4  -5   1    0.91    0.49 
  -4  -5   1    0.98    0.47 
  -4  -5   1    0.89    0.44 
  -4  -5   1    1.21    0.35 
  -4  -5   2   68.74    1.41 
  -4  -5   2   58.03    1.60 
  -4  -5   2   74.14    1.39 
  -4  -5   2   70.08    1.34 
  -4  -5   2   72.67    1.65 
  -4  -5   2   58.39    1.61 
  -4  -5   2   72.13    1.49 
  -4  -5   2   74.27    1.52 
  -4  -5   2   74.62    1.85 
  -4  -5   2   59.60    1.63 
  -4  -5   2   57.79    1.63 
  -4  -5   3   29.09    0.92 
  -4  -5   3   21.39    1.39 
  -4  -5   3   26.71    0.74 
  -4  -5   3   26.62    0.74 
  -4  -5   3   28.39    0.92 
  -4  -5   3   29.97    1.00 
  -4  -5   3   27.36    0.92 
  -4  -5   3   29.40    1.00 
  -4  -5   3   33.77    0.96 
  -4  -5   3   27.53    0.88 
  -4  -5   3   29.24    1.34 
  -4  -5   3   31.06    1.28 
  -4  -5   4   25.61    0.84 
  -4  -5   4   24.12    0.71 
  -4  -5   4   22.90    0.69 
  -4  -5   4   24.85    0.90 
  -4  -5   4   22.19    0.77 
  -4  -5   4   22.64    0.78 
  -4  -5   4   24.80    0.96 
  -4  -5   4   23.33    0.71 
  -4  -5   4   22.62    1.18 
  -4  -5   4   24.62    1.18 
  -4  -5   5    2.74    0.35 
  -4  -5   5    2.65    0.45 
  -4  -5   5    2.81    0.43 
  -4  -5   5    2.44    0.43 
  -4  -5   5    2.15    0.29 
  -4  -5   5    1.34    0.57 
  -4  -5   5    3.12    0.42 
  -4  -5   5    2.82    0.34 
  -4  -5   6    3.76    0.45 
  -4  -5   6    2.98    0.32 
  -4  -5   6    3.85    0.43 
  -4  -5   6    4.10    0.41 
  -4  -5   6    2.78    0.50 
  -4  -5   7    0.95    0.23 
  -4  -5   7    1.43    0.32 
  -4  -5   8    0.19    0.15 
  -4  -4 -10    0.61    0.18 
  -4  -4  -9    3.00    0.35 
  -4  -4  -9    2.98    0.38 
  -4  -4  -9    2.81    0.30 
  -4  -4  -8   34.19    0.93 
  -4  -4  -8   34.58    0.90 
  -4  -4  -8   31.89    1.22 
  -4  -4  -7    0.06    0.40 
  -4  -4  -7    0.15    0.34 
  -4  -4  -7    0.04    0.34 
  -4  -4  -7   -0.03    0.51 
  -4  -4  -7    0.20    0.35 
  -4  -4  -7   -0.01    0.31 
  -4  -4  -6   20.27    0.74 
  -4  -4  -6   20.48    0.74 
  -4  -4  -6   17.22    1.13 
  -4  -4  -6   17.76    1.02 
  -4  -4  -6   18.16    0.81 
  -4  -4  -6   18.40    0.81 
  -4  -4  -6   19.91    0.74 
  -4  -4  -5    0.04    0.34 
  -4  -4  -5    0.08    0.36 
  -4  -4  -5    0.41    0.41 
  -4  -4  -5    0.68    0.52 
  -4  -4  -5    0.44    0.31 
  -4  -4  -5    0.19    0.48 
  -4  -4  -5    0.52    0.33 
  -4  -4  -5    0.42    0.32 
  -4  -4  -5    0.32    0.65 
  -4  -4  -4   14.93    0.62 
  -4  -4  -4   13.52    0.68 
  -4  -4  -4   14.54    0.61 
  -4  -4  -4   11.95    0.66 
  -4  -4  -4   11.98    0.66 
  -4  -4  -4   13.84    0.86 
  -4  -4  -4   14.53    0.83 
  -4  -4  -4   14.20    0.82 
  -4  -4  -4   13.14    0.71 
  -4  -4  -4   13.61    0.62 
  -4  -4  -4   13.69    0.59 
  -4  -4  -4   15.09    0.69 
  -4  -4  -3    0.70    0.31 
  -4  -4  -3    0.69    0.29 
  -4  -4  -3    0.58    0.32 
  -4  -4  -3    0.79    0.34 
  -4  -4  -3    0.59    0.48 
  -4  -4  -3    0.67    0.39 
  -4  -4  -3    0.62    0.28 
  -4  -4  -3    0.35    0.48 
  -4  -4  -3    0.56    0.61 
  -4  -4  -2    1.72    0.37 
  -4  -4  -2    1.47    0.30 
  -4  -4  -2    1.84    0.34 
  -4  -4  -2    1.87    0.34 
  -4  -4  -2    1.44    0.44 
  -4  -4  -2    1.68    0.30 
  -4  -4  -2    1.33    0.47 
  -4  -4  -2    1.60    0.38 
  -4  -4  -1   27.66    0.75 
  -4  -4  -1   29.60    0.82 
  -4  -4  -1   25.71    0.80 
  -4  -4  -1   29.68    1.01 
  -4  -4  -1   29.53    0.79 
  -4  -4  -1   28.68    0.88 
  -4  -4  -1   29.12    0.88 
  -4  -4  -1   26.74    1.05 
  -4  -4  -1   30.95    1.08 
  -4  -4  -1   28.60    0.78 
  -4  -4  -1   27.26    0.73 
  -4  -4  -1   29.18    1.11 
  -4  -4  -1   29.25    1.11 
  -4  -4   0    4.96    0.37 
  -4  -4   0    5.29    0.57 
  -4  -4   0    4.50    0.35 
  -4  -4   0    4.95    0.40 
  -4  -4   0    4.54    0.36 
  -4  -4   0    4.70    0.40 
  -4  -4   0    4.31    0.44 
  -4  -4   0    4.44    0.45 
  -4  -4   0    5.24    0.61 
  -4  -4   0    4.62    0.54 
  -4  -4   0    4.81    0.56 
  -4  -4   0    4.85    0.49 
  -4  -4   1    0.50    0.33 
  -4  -4   1    0.29    0.33 
  -4  -4   1    0.45    0.34 
  -4  -4   1    0.32    0.34 
  -4  -4   1    0.06    0.28 
  -4  -4   1    0.46    0.31 
  -4  -4   1    0.12    0.36 
  -4  -4   1    0.24    0.37 
  -4  -4   1    0.38    0.28 
  -4  -4   2   28.44    0.84 
  -4  -4   2   29.12    1.09 
  -4  -4   2   28.06    0.82 
  -4  -4   2   25.38    0.73 
  -4  -4   2   24.50    0.72 
  -4  -4   2   26.09    0.84 
  -4  -4   2   26.25    0.85 
  -4  -4   2   26.26    0.86 
  -4  -4   2   28.22    1.16 
  -4  -4   2   22.41    0.93 
  -4  -4   3   15.14    0.70 
  -4  -4   3   16.39    0.69 
  -4  -4   3   16.22    0.74 
  -4  -4   3   14.53    0.60 
  -4  -4   3   14.33    0.60 
  -4  -4   3   15.52    0.71 
  -4  -4   3   12.73    0.63 
  -4  -4   3   14.47    0.70 
  -4  -4   3   14.48    0.67 
  -4  -4   3   16.27    0.98 
  -4  -4   3   15.90    0.95 
  -4  -4   3   15.35    0.87 
  -4  -4   4   28.29    0.83 
  -4  -4   4   27.99    0.91 
  -4  -4   4   28.80    1.01 
  -4  -4   4   29.57    1.01 
  -4  -4   4   27.41    0.82 
  -4  -4   4   30.13    0.91 
  -4  -4   4   31.81    0.99 
  -4  -4   4   32.34    0.97 
  -4  -4   5    7.22    0.50 
  -4  -4   5    6.07    0.51 
  -4  -4   5    7.56    0.60 
  -4  -4   5    4.20    0.72 
  -4  -4   5    8.16    0.55 
  -4  -4   5    8.27    0.50 
  -4  -4   5    5.81    0.38 
  -4  -4   5    7.94    0.51 
  -4  -4   5    6.77    0.58 
  -4  -4   6    3.88    0.33 
  -4  -4   6    4.32    0.42 
  -4  -4   6    5.01    0.46 
  -4  -4   6    4.72    0.46 
  -4  -4   6    4.24    0.42 
  -4  -4   6    4.40    0.42 
  -4  -4   6    3.36    0.44 
  -4  -4   7    0.22    0.23 
  -4  -4   7   -0.02    0.29 
  -4  -4   7    0.63    0.31 
  -4  -4   7    0.38    0.29 
  -4  -4   8    7.88    0.49 
  -4  -4   8    7.08    0.37 
  -4  -4   8    7.00    0.37 
  -4  -4   8    6.87    0.36 
  -4  -4   9    2.04    0.16 
  -4  -3 -11    0.70    0.13 
  -4  -3 -10    1.69    0.29 
  -4  -3 -10    2.13    0.31 
  -4  -3 -10    2.67    0.27 
  -4  -3  -9    5.29    0.45 
  -4  -3  -9    4.78    0.43 
  -4  -3  -9    4.71    0.40 
  -4  -3  -8   35.09    0.96 
  -4  -3  -7    4.19    0.52 
  -4  -3  -7    4.81    0.67 
  -4  -3  -7    4.73    0.45 
  -4  -3  -7    4.85    0.46 
  -4  -3  -7    3.79    0.48 
  -4  -3  -7    3.45    0.62 
  -4  -3  -6  313.36    3.57 
  -4  -3  -6  317.30    3.89 
  -4  -3  -6  312.90    3.65 
  -4  -3  -6  309.74    3.63 
  -4  -3  -6  320.23    4.49 
  -4  -3  -6  309.03    3.80 
  -4  -3  -5   28.33    0.94 
  -4  -3  -5   27.84    0.84 
  -4  -3  -5   24.75    0.84 
  -4  -3  -5   24.07    1.24 
  -4  -3  -5   27.74    1.18 
  -4  -3  -5   25.71    0.86 
  -4  -3  -5   27.35    0.78 
  -4  -3  -4    1.09    0.41 
  -4  -3  -4    1.15    0.34 
  -4  -3  -4    1.23    0.34 
  -4  -3  -4    1.21    0.51 
  -4  -3  -4    1.22    0.32 
  -4  -3  -4    0.94    0.46 
  -4  -3  -4    1.80    0.39 
  -4  -3  -4    1.10    0.33 
  -4  -3  -4    1.69    0.34 
  -4  -3  -3    9.18    0.55 
  -4  -3  -3    9.56    0.48 
  -4  -3  -3   10.25    0.56 
  -4  -3  -3    9.80    0.49 
  -4  -3  -3   10.68    0.50 
  -4  -3  -3   10.08    0.50 
  -4  -3  -3    9.88    0.50 
  -4  -3  -2   11.58    0.51 
  -4  -3  -2   10.93    0.47 
  -4  -3  -2   11.27    0.50 
  -4  -3  -2    9.99    0.46 
  -4  -3  -2   11.21    0.56 
  -4  -3  -2    9.82    0.46 
  -4  -3  -2   10.69    0.60 
  -4  -3  -1   39.71    0.93 
  -4  -3  -1   38.02    0.82 
  -4  -3  -1   43.88    1.00 
  -4  -3  -1   42.12    0.99 
  -4  -3  -1   43.56    0.90 
  -4  -3  -1   38.05    0.83 
  -4  -3  -1   44.15    1.25 
  -4  -3  -1   44.02    1.24 
  -4  -3  -1   43.02    1.12 
  -4  -3   0    7.08    0.41 
  -4  -3   0    6.14    0.37 
  -4  -3   0    6.36    0.45 
  -4  -3   0    6.07    0.45 
  -4  -3   0    6.68    0.44 
  -4  -3   0    7.24    0.44 
  -4  -3   0    6.21    0.37 
  -4  -3   0    6.43    0.55 
  -4  -3   0    6.13    0.56 
  -4  -3   0    7.02    0.50 
  -4  -3   1   88.59    1.37 
  -4  -3   1   94.38    1.51 
  -4  -3   1   95.26    1.53 
  -4  -3   1   80.07    1.42 
  -4  -3   1   88.71    1.37 
  -4  -3   1   83.46    1.74 
  -4  -3   2   20.27    0.69 
  -4  -3   2   20.92    0.71 
  -4  -3   2   21.04    0.67 
  -4  -3   2   22.10    0.96 
  -4  -3   2   21.98    0.73 
  -4  -3   2   18.58    0.62 
  -4  -3   2   19.20    0.63 
  -4  -3   3   36.75    0.92 
  -4  -3   3   38.46    0.99 
  -4  -3   3   40.15    1.04 
  -4  -3   3   42.74    1.07 
  -4  -3   3   36.94    0.92 
  -4  -3   3   40.93    1.34 
  -4  -3   3   43.37    1.03 
  -4  -3   4   76.42    1.54 
  -4  -3   4   71.78    1.38 
  -4  -3   4   66.94    1.36 
  -4  -3   4   74.78    1.43 
  -4  -3   4   69.59    1.83 
  -4  -3   4   75.94    1.91 
  -4  -3   4   75.26    1.43 
  -4  -3   4   83.52    1.56 
  -4  -3   4   71.70    1.38 
  -4  -3   5   28.69    0.89 
  -4  -3   5   29.65    1.27 
  -4  -3   5   31.15    0.92 
  -4  -3   5   24.91    1.12 
  -4  -3   5   27.21    0.95 
  -4  -3   5   28.36    0.88 
  -4  -3   5   31.60    0.88 
  -4  -3   5   35.08    1.04 
  -4  -3   6    2.08    0.51 
  -4  -3   6    2.31    0.44 
  -4  -3   6    1.79    0.36 
  -4  -3   6    2.24    0.38 
  -4  -3   6    1.81    0.37 
  -4  -3   6    2.53    0.40 
  -4  -3   6    2.17    0.42 
  -4  -3   6    2.21    0.44 
  -4  -3   7    0.29    0.32 
  -4  -3   7    0.19    0.37 
  -4  -3   7   -0.01    0.24 
  -4  -3   7    0.27    0.30 
  -4  -3   7    0.30    0.31 
  -4  -3   7    0.01    0.31 
  -4  -3   8    8.69    0.53 
  -4  -3   8    8.93    0.47 
  -4  -3   8    8.76    0.48 
  -4  -3   8    9.13    0.44 
  -4  -3   8   10.24    0.46 
  -4  -3   9   35.37    0.75 
  -4  -3   9   35.38    0.70 
  -4  -3   9   35.32    0.76 
  -4  -2 -10    1.13    0.29 
  -4  -2 -10    1.13    0.30 
  -4  -2  -9    1.23    0.36 
  -4  -2  -9    1.04    0.31 
  -4  -2  -9    1.35    0.48 
  -4  -2  -9    1.14    0.45 
  -4  -2  -9    1.20    0.36 
  -4  -2  -9    1.23    0.37 
  -4  -2  -8   22.21    0.80 
  -4  -2  -8   21.18    0.79 
  -4  -2  -8   23.55    0.78 
  -4  -2  -8   20.79    0.83 
  -4  -2  -8   22.70    1.17 
  -4  -2  -8   22.27    1.15 
  -4  -2  -7    0.33    0.47 
  -4  -2  -7    0.24    0.49 
  -4  -2  -7    0.46    0.36 
  -4  -2  -7   -0.23    0.43 
  -4  -2  -6  313.07    3.86 
  -4  -2  -6  318.80    3.71 
  -4  -2  -6  315.56    3.71 
  -4  -2  -6  308.56    3.74 
  -4  -2  -6  316.33    4.68 
  -4  -2  -6  308.56    4.69 
  -4  -2  -5    2.19    0.39 
  -4  -2  -5    2.38    0.41 
  -4  -2  -5    2.58    0.39 
  -4  -2  -5    2.89    0.59 
  -4  -2  -5    2.50    0.55 
  -4  -2  -5    2.66    0.53 
  -4  -2  -5    3.74    0.50 
  -4  -2  -4    4.11    0.41 
  -4  -2  -4    4.18    0.41 
  -4  -2  -4    4.38    0.60 
  -4  -2  -4    4.46    0.48 
  -4  -2  -4    3.90    0.37 
  -4  -2  -4    4.37    0.42 
  -4  -2  -4    4.22    0.42 
  -4  -2  -3   93.71    1.48 
  -4  -2  -3   90.84    1.45 
  -4  -2  -3   96.09    1.49 
  -4  -2  -3   97.96    1.49 
  -4  -2  -3   88.47    1.58 
  -4  -2  -3   99.60    1.63 
  -4  -2  -2  112.82    1.59 
  -4  -2  -2  112.79    1.59 
  -4  -2  -2  120.53    1.79 
  -4  -2  -2  113.05    1.73 
  -4  -2  -2  120.56    1.62 
  -4  -2  -1    0.71    0.23 
  -4  -2  -1    0.60    0.23 
  -4  -2  -1    0.71    0.25 
  -4  -2  -1    1.20    0.33 
  -4  -2  -1    0.89    0.32 
  -4  -2   0  113.33    1.54 
  -4  -2   0  120.19    1.69 
  -4  -2   0  118.34    1.67 
  -4  -2   0  112.13    1.53 
  -4  -2   0  110.15    1.67 
  -4  -2   0  108.94    1.68 
  -4  -2   1   34.41    0.76 
  -4  -2   1   34.66    0.77 
  -4  -2   1   35.08    0.82 
  -4  -2   1   35.92    0.85 
  -4  -2   2  211.89    2.58 
  -4  -2   2  242.62    3.11 
  -4  -2   2  234.87    2.74 
  -4  -2   2  210.82    2.57 
  -4  -2   2  197.84    2.57 
  -4  -2   2  204.15    2.60 
  -4  -2   3   12.24    0.55 
  -4  -2   3   11.25    0.51 
  -4  -2   3   10.20    0.51 
  -4  -2   3   12.30    0.67 
  -4  -2   3   12.19    0.54 
  -4  -2   3   11.07    0.50 
  -4  -2   4   32.10    0.98 
  -4  -2   4   31.51    0.88 
  -4  -2   4   31.50    0.85 
  -4  -2   4   31.03    0.85 
  -4  -2   5   94.27    1.67 
  -4  -2   5  102.72    1.89 
  -4  -2   5   99.81    2.17 
  -4  -2   5  101.24    1.72 
  -4  -2   5   90.03    1.51 
  -4  -2   5   92.84    1.66 
  -4  -2   5  103.73    1.67 
  -4  -2   6    0.25    0.34 
  -4  -2   6    0.52    0.41 
  -4  -2   6    0.85    0.41 
  -4  -2   6    0.75    0.29 
  -4  -2   6    0.18    0.33 
  -4  -2   6    0.18    0.34 
  -4  -2   6    0.06    0.36 
  -4  -2   7   12.28    0.57 
  -4  -2   7   13.87    0.60 
  -4  -2   7   12.46    0.69 
  -4  -2   7   12.18    0.62 
  -4  -2   8   16.83    0.59 
  -4  -2   8   17.61    0.60 
  -4  -2   9    0.13    0.20 
  -4  -2   9    0.24    0.28 
  -4  -2  10   49.11    0.66 
  -4  -1 -11    0.23    0.18 
  -4  -1 -10   15.19    0.58 
  -4  -1 -10   13.62    0.50 
  -4  -1 -10   15.82    0.53 
  -4  -1 -10   17.43    0.57 
  -4  -1  -9   39.67    1.38 
  -4  -1  -9   41.91    1.04 
  -4  -1  -9   38.69    0.96 
  -4  -1  -9   42.27    1.37 
  -4  -1  -9   39.43    1.37 
  -4  -1  -9   41.75    1.01 
  -4  -1  -8    0.13    0.39 
  -4  -1  -8   -0.06    0.45 
  -4  -1  -8    0.33    0.47 
  -4  -1  -8   -0.06    0.39 
  -4  -1  -8    0.08    0.36 
  -4  -1  -8   -0.14    0.37 
  -4  -1  -8   -0.11    0.42 
  -4  -1  -7   68.90    1.52 
  -4  -1  -7   71.59    1.49 
  -4  -1  -7   70.57    1.53 
  -4  -1  -7   73.92    2.04 
  -4  -1  -7   71.64    1.52 
  -4  -1  -7   70.52    1.61 
  -4  -1  -6  110.35    1.89 
  -4  -1  -6  112.39    2.44 
  -4  -1  -6  104.28    1.87 
  -4  -1  -6  108.03    1.82 
  -4  -1  -6  101.16    1.95 
  -4  -1  -6  107.27    1.86 
  -4  -1  -5  250.68    3.08 
  -4  -1  -5  250.09    3.08 
  -4  -1  -5  222.04    3.00 
  -4  -1  -5  272.71    3.91 
  -4  -1  -5  237.20    3.07 
  -4  -1  -5  233.31    3.08 
  -4  -1  -5  247.33    3.12 
  -4  -1  -5  232.21    3.21 
  -4  -1  -4    3.13    0.58 
  -4  -1  -4    2.69    0.36 
  -4  -1  -4    3.75    0.41 
  -4  -1  -4    3.29    0.46 
  -4  -1  -4    3.38    0.40 
  -4  -1  -3   11.24    0.57 
  -4  -1  -3   10.34    0.56 
  -4  -1  -3   10.13    0.52 
  -4  -1  -3   11.35    0.54 
  -4  -1  -2  116.80    1.78 
  -4  -1  -2  116.62    1.78 
  -4  -1  -1  100.93    1.60 
  -4  -1  -1  110.44    1.67 
  -4  -1  -1  114.86    1.69 
  -4  -1  -1  104.83    1.57 
  -4  -1  -1  111.62    1.78 
  -4  -1   0  310.43    3.55 
  -4  -1   0  317.78    3.51 
  -4  -1   0  313.02    3.49 
  -4  -1   1   12.84    0.52 
  -4  -1   1   12.38    0.49 
  -4  -1   1   12.96    0.52 
  -4  -1   2    5.71    0.42 
  -4  -1   2    5.03    0.37 
  -4  -1   3    3.83    0.39 
  -4  -1   4   13.70    0.63 
  -4  -1   4   15.10    0.63 
  -4  -1   4   14.88    0.56 
  -4  -1   4   14.58    0.63 
  -4  -1   4   15.44    0.72 
  -4  -1   5   60.16    1.23 
  -4  -1   5   58.08    1.31 
  -4  -1   5   55.61    1.30 
  -4  -1   6   17.31    0.73 
  -4  -1   6   17.32    0.68 
  -4  -1   6   17.20    0.67 
  -4  -1   7    8.86    0.50 
  -4  -1   7    8.50    0.53 
  -4  -1   8   25.75    0.83 
  -4  -1   8   34.67    0.80 
  -4  -1   9   44.81    0.96 
  -4  -1  10   -0.09    0.28 
  -4  -1  10    0.18    0.15 
  -4   0 -11   26.44    0.53 
  -4   0 -10    2.37    0.32 
  -4   0 -10    1.95    0.33 
  -4   0 -10    2.35    0.32 
  -4   0  -9   23.73    0.79 
  -4   0  -9   24.80    0.79 
  -4   0  -9   21.83    0.67 
  -4   0  -9   24.29    0.80 
  -4   0  -9   22.61    0.68 
  -4   0  -9   20.51    0.79 
  -4   0  -9   23.49    0.73 
  -4   0  -9   24.52    1.06 
  -4   0  -9   23.04    1.05 
  -4   0  -8   40.31    1.03 
  -4   0  -8   39.43    1.10 
  -4   0  -8   38.71    0.99 
  -4   0  -8   36.29    1.11 
  -4   0  -8   37.92    0.98 
  -4   0  -8   39.82    1.03 
  -4   0  -8   38.37    1.44 
  -4   0  -8   40.40    1.48 
  -4   0  -7   62.84    1.45 
  -4   0  -7   63.69    1.42 
  -4   0  -7   61.17    1.34 
  -4   0  -7   66.12    1.49 
  -4   0  -7   60.98    1.33 
  -4   0  -7   59.84    1.45 
  -4   0  -7   62.45    1.38 
  -4   0  -7   65.80    1.96 
  -4   0  -7   65.82    1.96 
  -4   0  -6   30.36    1.00 
  -4   0  -6   29.10    0.99 
  -4   0  -6   30.10    0.96 
  -4   0  -6   30.57    0.99 
  -4   0  -6   33.49    1.02 
  -4   0  -6   28.97    0.91 
  -4   0  -6   28.85    0.91 
  -4   0  -6   28.60    1.32 
  -4   0  -6   27.79    0.93 
  -4   0  -6   29.68    1.34 
  -4   0  -5   11.71    0.65 
  -4   0  -5   11.18    0.64 
  -4   0  -5   13.27    0.67 
  -4   0  -5   11.62    0.58 
  -4   0  -5   10.96    0.65 
  -4   0  -5   13.63    0.94 
  -4   0  -5   11.17    0.86 
  -4   0  -5   12.83    0.67 
  -4   0  -5   12.61    0.66 
  -4   0  -5   11.47    0.84 
  -4   0  -4    1.88    0.47 
  -4   0  -4    2.10    0.48 
  -4   0  -4    2.21    0.41 
  -4   0  -4    2.76    0.60 
  -4   0  -4    2.29    0.40 
  -4   0  -4    2.15    0.40 
  -4   0  -3   62.65    1.62 
  -4   0  -3   63.21    1.30 
  -4   0  -3   56.02    1.07 
  -4   0  -3   55.50    1.07 
  -4   0  -3   65.92    1.31 
  -4   0  -2   12.53    0.58 
  -4   0  -2   11.42    0.45 
  -4   0  -2   10.92    0.44 
  -4   0  -2   12.28    0.59 
  -4   0  -2   11.27    0.58 
  -4   0  -1   91.32    1.46 
  -4   0  -1   90.47    1.28 
  -4   0  -1   88.54    1.26 
  -4   0   0   51.45    1.09 
  -4   0   0   52.05    1.01 
  -4   0   0   54.87    0.91 
  -4   0   0   54.31    0.92 
  -4   0   1  127.00    1.63 
  -4   0   1  126.37    1.64 
  -4   0   2    2.00    0.26 
  -4   0   2    1.84    0.25 
  -4   0   3   42.14    0.87 
  -4   0   3   41.57    0.87 
  -4   0   4   15.82    0.61 
  -4   0   4   15.07    0.58 
  -4   0   4   16.54    0.59 
  -4   0   4   16.78    0.60 
  -4   0   4   15.33    0.61 
  -4   0   5   27.59    0.86 
  -4   0   5   29.18    0.86 
  -4   0   5   30.84    0.85 
  -4   0   5   30.35    0.85 
  -4   0   6   20.86    0.74 
  -4   0   6   20.47    0.74 
  -4   0   7    9.03    0.55 
  -4   0   7    9.12    0.55 
  -4   0   7    7.89    0.49 
  -4   0   7    8.48    0.54 
  -4   0   8   97.56    1.59 
  -4   0   8   97.40    1.59 
  -4   0   9    7.06    0.43 
  -4   0   9    6.78    0.42 
  -4   1 -11   33.88    0.58 
  -4   1 -10    9.27    0.43 
  -4   1 -10   10.30    0.46 
  -4   1  -9    0.31    0.29 
  -4   1  -9    0.13    0.29 
  -4   1  -9    0.02    0.35 
  -4   1  -9    0.01    0.33 
  -4   1  -9    0.32    0.32 
  -4   1  -9    0.14    0.31 
  -4   1  -9    0.25    0.28 
  -4   1  -9   -0.13    0.37 
  -4   1  -9    0.02    0.36 
  -4   1  -8   33.87    0.92 
  -4   1  -8   34.34    0.95 
  -4   1  -8   35.93    1.04 
  -4   1  -8   35.19    0.95 
  -4   1  -8   36.22    0.95 
  -4   1  -8   35.16    1.02 
  -4   1  -8   36.17    1.32 
  -4   1  -8   35.49    1.30 
  -4   1  -7   51.09    1.25 
  -4   1  -7   52.66    1.26 
  -4   1  -7   51.97    1.24 
  -4   1  -7   53.09    1.24 
  -4   1  -7   51.37    1.33 
  -4   1  -7   48.99    1.23 
  -4   1  -7   52.75    1.68 
  -4   1  -7   54.21    1.68 
  -4   1  -6  143.13    2.28 
  -4   1  -6  169.63    2.45 
  -4   1  -6  153.19    2.31 
  -4   1  -6  149.81    2.29 
  -4   1  -6  151.29    2.41 
  -4   1  -6  146.53    2.24 
  -4   1  -6  134.81    2.35 
  -4   1  -6  131.50    2.27 
  -4   1  -6  152.86    2.95 
  -4   1  -6  150.37    2.91 
  -4   1  -5   57.87    1.31 
  -4   1  -5   67.49    1.40 
  -4   1  -5   62.86    1.31 
  -4   1  -5   61.43    1.30 
  -4   1  -5   48.73    1.25 
  -4   1  -5   47.27    1.26 
  -4   1  -5   53.22    1.61 
  -4   1  -5   54.73    1.64 
  -4   1  -5   51.72    1.18 
  -4   1  -5   48.54    1.28 
  -4   1  -4    4.51    0.46 
  -4   1  -4    3.75    0.40 
  -4   1  -4    3.41    0.42 
  -4   1  -4    3.34    0.44 
  -4   1  -4    3.50    0.47 
  -4   1  -4    4.61    0.47 
  -4   1  -4    4.00    0.54 
  -4   1  -4    3.17    0.53 
  -4   1  -3    9.76    0.52 
  -4   1  -3    9.35    0.46 
  -4   1  -3    8.80    0.45 
  -4   1  -3    9.07    0.46 
  -4   1  -3    8.72    0.46 
  -4   1  -3   10.35    0.61 
  -4   1  -2   99.23    1.52 
  -4   1  -2   96.47    1.52 
  -4   1  -2  120.40    1.87 
  -4   1  -2   99.48    1.47 
  -4   1  -2  103.42    1.46 
  -4   1  -2  115.72    1.78 
  -4   1  -1  102.95    1.65 
  -4   1   0   80.76    1.33 
  -4   1   0   74.37    1.11 
  -4   1   1    6.66    0.33 
  -4   1   2    0.07    0.20 
  -4   1   3   58.34    1.00 
  -4   1   3   58.24    1.00 
  -4   1   4    8.66    0.43 
  -4   1   4    7.25    0.43 
  -4   1   4    8.39    0.48 
  -4   1   5    3.27    0.35 
  -4   1   5    2.98    0.45 
  -4   1   5    2.79    0.36 
  -4   1   5    2.70    0.36 
  -4   1   6   13.43    0.66 
  -4   1   6   13.39    0.58 
  -4   1   6   12.71    0.57 
  -4   1   6   12.91    0.63 
  -4   1   7    0.13    0.33 
  -4   1   7    0.16    0.29 
  -4   1   7   -0.03    0.46 
  -4   1   7   -0.03    0.32 
  -4   1   7    0.32    0.31 
  -4   1   8    0.13    0.30 
  -4   1   8    0.16    0.30 
  -4   1   8    0.12    0.26 
  -4   1   9    0.17    0.23 
  -4   2 -10    0.96    0.21 
  -4   2 -10    0.97    0.22 
  -4   2  -9    0.37    0.30 
  -4   2  -9    0.07    0.27 
  -4   2  -9    0.24    0.26 
  -4   2  -8   45.79    1.09 
  -4   2  -8   44.65    1.07 
  -4   2  -8   43.85    1.12 
  -4   2  -8   44.08    1.02 
  -4   2  -8   45.25    1.32 
  -4   2  -8   46.06    1.30 
  -4   2  -7   27.45    0.87 
  -4   2  -7   22.84    1.02 
  -4   2  -7   30.18    0.95 
  -4   2  -7   24.63    0.99 
  -4   2  -7   29.90    0.94 
  -4   2  -7   28.44    0.99 
  -4   2  -7   27.10    0.94 
  -4   2  -7   29.78    1.15 
  -4   2  -7   28.81    1.13 
  -4   2  -6   39.64    1.09 
  -4   2  -6   46.33    1.26 
  -4   2  -6   47.50    1.21 
  -4   2  -6   43.59    1.24 
  -4   2  -6   46.29    1.20 
  -4   2  -6   41.06    1.22 
  -4   2  -6   41.01    1.15 
  -4   2  -6   43.70    1.43 
  -4   2  -6   44.72    1.43 
  -4   2  -5   24.12    0.90 
  -4   2  -5   26.27    0.98 
  -4   2  -5   23.02    0.88 
  -4   2  -5   25.98    0.91 
  -4   2  -5   23.62    0.91 
  -4   2  -5   21.84    0.92 
  -4   2  -5   25.25    0.95 
  -4   2  -4    1.64    0.39 
  -4   2  -4    1.47    0.38 
  -4   2  -4    1.78    0.43 
  -4   2  -4    1.69    0.47 
  -4   2  -4    1.30    0.40 
  -4   2  -4    1.56    0.40 
  -4   2  -3   10.07    0.57 
  -4   2  -3   10.30    0.60 
  -4   2  -3   11.47    0.68 
  -4   2  -3   10.09    0.56 
  -4   2  -2   56.67    1.21 
  -4   2  -2   54.64    1.21 
  -4   2  -1    5.69    0.44 
  -4   2   0   36.09    0.89 
  -4   2   0   33.84    1.07 
  -4   2   0   33.13    1.06 
  -4   2   1    1.78    0.30 
  -4   2   1    1.81    0.44 
  -4   2   1    1.84    0.46 
  -4   2   2   22.70    0.67 
  -4   2   2   23.93    1.06 
  -4   2   2   24.48    1.07 
  -4   2   3    0.15    0.25 
  -4   2   3    0.37    0.28 
  -4   2   3    0.48    0.48 
  -4   2   3   -0.01    0.46 
  -4   2   4    3.97    0.45 
  -4   2   4    3.73    0.40 
  -4   2   4    3.79    0.39 
  -4   2   5    5.69    0.50 
  -4   2   5    5.86    0.46 
  -4   2   5    5.66    0.48 
  -4   2   6   24.95    0.84 
  -4   2   6   25.97    0.88 
  -4   2   7    4.61    0.46 
  -4   2   8    0.04    0.25 
  -4   2   8    0.34    0.32 
  -4   2  10    0.00    0.20 
  -4   3 -10    1.93    0.21 
  -4   3  -9   11.51    0.47 
  -4   3  -9   13.04    0.51 
  -4   3  -9   12.08    0.49 
  -4   3  -9   11.95    0.49 
  -4   3  -8   13.83    0.60 
  -4   3  -8   13.54    0.61 
  -4   3  -8   13.27    0.61 
  -4   3  -8   14.26    0.65 
  -4   3  -7   10.72    0.61 
  -4   3  -7    9.34    0.52 
  -4   3  -7   10.16    0.58 
  -4   3  -7    9.97    0.64 
  -4   3  -7    9.98    0.60 
  -4   3  -6   84.82    1.70 
  -4   3  -6   78.51    1.54 
  -4   3  -6   80.75    1.63 
  -4   3  -6   79.47    1.60 
  -4   3  -6   81.29    1.73 
  -4   3  -6   84.03    1.69 
  -4   3  -5    6.14    0.55 
  -4   3  -5    5.87    0.55 
  -4   3  -5    6.48    0.54 
  -4   3  -5    5.98    0.59 
  -4   3  -5    5.75    0.52 
  -4   3  -5    5.76    0.59 
  -4   3  -4    1.08    0.38 
  -4   3  -4    0.74    0.39 
  -4   3  -4    1.33    0.40 
  -4   3  -4    1.16    0.47 
  -4   3  -4    0.78    0.47 
  -4   3  -4    0.57    0.40 
  -4   3  -3   18.52    0.83 
  -4   3  -3   22.43    0.96 
  -4   3  -3   25.56    0.87 
  -4   3  -3   24.77    0.94 
  -4   3  -3   19.88    0.83 
  -4   3  -2   80.87    1.61 
  -4   3  -1  107.68    1.81 
  -4   3  -1   96.94    2.02 
  -4   3   0  454.49    5.01 
  -4   3   0  446.99    5.10 
  -4   3   0  434.34    5.50 
  -4   3   0  426.60    5.48 
  -4   3   0  426.66    5.34 
  -4   3   1  356.77    4.11 
  -4   3   1  345.41    4.21 
  -4   3   1  344.08    3.84 
  -4   3   1  358.58    4.88 
  -4   3   1  359.18    4.89 
  -4   3   1  342.08    4.38 
  -4   3   2    0.03    0.28 
  -4   3   2    0.43    0.49 
  -4   3   2    0.31    0.47 
  -4   3   2   -0.04    0.24 
  -4   3   3    6.48    0.48 
  -4   3   3    7.07    0.49 
  -4   3   3    7.29    0.45 
  -4   3   3    6.57    0.50 
  -4   3   3    8.40    0.81 
  -4   3   3    7.22    0.77 
  -4   3   4    1.43    0.37 
  -4   3   4    1.65    0.33 
  -4   3   4    1.47    0.42 
  -4   3   4    1.42    0.58 
  -4   3   4    1.33    0.56 
  -4   3   5   39.32    1.00 
  -4   3   5   39.66    1.08 
  -4   3   5   38.38    1.02 
  -4   3   6   10.47    0.61 
  -4   3   6    9.55    0.55 
  -4   3   7   32.27    0.93 
  -4   3   8   56.21    1.09 
  -4   3   8   61.04    1.19 
  -4   3   9    1.76    0.31 
  -4   4  -9    0.92    0.23 
  -4   4  -9    0.60    0.20 
  -4   4  -9    0.67    0.20 
  -4   4  -8   12.34    0.52 
  -4   4  -8   12.35    0.55 
  -4   4  -8   11.76    0.52 
  -4   4  -8   11.43    0.52 
  -4   4  -7    3.43    0.38 
  -4   4  -7    3.71    0.34 
  -4   4  -7    3.41    0.41 
  -4   4  -7    3.37    0.40 
  -4   4  -6    0.83    0.38 
  -4   4  -6    1.14    0.34 
  -4   4  -6    0.93    0.37 
  -4   4  -6    1.10    0.38 
  -4   4  -5   29.16    0.94 
  -4   4  -5   35.12    1.09 
  -4   4  -5   35.47    1.10 
  -4   4  -5   36.72    1.01 
  -4   4  -5   28.18    0.92 
  -4   4  -5   35.32    1.09 
  -4   4  -5   40.50    1.21 
  -4   4  -5   29.47    0.94 
  -4   4  -4    5.33    0.55 
  -4   4  -4    8.20    0.61 
  -4   4  -4    7.64    0.61 
  -4   4  -4    8.36    0.67 
  -4   4  -4    5.25    0.55 
  -4   4  -4    9.55    0.69 
  -4   4  -4    7.75    0.61 
  -4   4  -4    9.32    0.59 
  -4   4  -3    0.34    0.35 
  -4   4  -3    0.39    0.48 
  -4   4  -3    0.26    0.45 
  -4   4  -3    0.02    0.38 
  -4   4  -3    0.15    0.37 
  -4   4  -2   53.49    1.26 
  -4   4  -2   57.23    1.36 
  -4   4  -1  104.32    2.19 
  -4   4  -1  105.36    1.78 
  -4   4   0   76.45    1.81 
  -4   4   0   77.58    1.65 
  -4   4   1   40.83    1.28 
  -4   4   1   38.52    1.49 
  -4   4   1   38.77    1.48 
  -4   4   1   43.04    1.24 
  -4   4   1   41.02    1.08 
  -4   4   2    0.26    0.47 
  -4   4   2    0.35    0.58 
  -4   4   2    0.86    0.53 
  -4   4   2    0.56    0.50 
  -4   4   2    0.89    0.49 
  -4   4   2    0.21    0.61 
  -4   4   2    0.26    0.32 
  -4   4   3   11.09    0.95 
  -4   4   3   10.55    0.94 
  -4   4   3   11.89    0.80 
  -4   4   3   12.92    0.68 
  -4   4   3   10.63    0.63 
  -4   4   4   10.94    0.62 
  -4   4   4   12.76    0.81 
  -4   4   4   13.39    0.70 
  -4   4   5    0.65    0.36 
  -4   4   5    0.94    0.49 
  -4   4   5    0.63    0.59 
  -4   4   6   37.02    1.02 
  -4   4   8    2.56    0.39 
  -4   5  -9    0.24    0.11 
  -4   5  -8    1.49    0.26 
  -4   5  -7    8.45    0.49 
  -4   5  -6   11.67    0.51 
  -4   5  -6   12.22    0.56 
  -4   5  -5    0.46    0.32 
  -4   5  -5    0.87    0.41 
  -4   5  -5    0.32    0.31 
  -4   5  -5    0.59    0.30 
  -4   5  -5    0.52    0.38 
  -4   5  -4    5.48    0.54 
  -4   5  -4    9.34    0.63 
  -4   5  -4    5.48    0.54 
  -4   5  -4    7.32    0.61 
  -4   5  -4    8.42    0.53 
  -4   5  -3   12.57    0.75 
  -4   5  -3   11.88    0.66 
  -4   5  -3   13.29    0.65 
  -4   5  -2   23.90    0.83 
  -4   5  -2   21.34    0.82 
  -4   5  -1   23.53    1.04 
  -4   5  -1   20.95    0.82 
  -4   5   0   47.51    1.41 
  -4   5   0   42.99    1.23 
  -4   5   1   73.55    1.72 
  -4   5   1   70.47    1.54 
  -4   5   1   72.87    1.51 
  -4   5   2    6.91    0.62 
  -4   5   2    7.73    0.73 
  -4   5   2    6.93    0.55 
  -4   5   3    9.04    0.74 
  -4   5   3    9.61    0.78 
  -4   5   4   12.90    0.80 
  -4   5   4   13.27    0.95 
  -4   5   5    4.42    0.80 
  -4   6  -7    1.72    0.25 
  -4   6  -7    2.24    0.23 
  -4   6  -6   10.76    0.41 
  -4   6  -6   13.74    0.48 
  -4   6  -5   11.52    0.53 
  -4   6  -5   11.92    0.49 
  -4   6  -4    0.75    0.34 
  -4   6  -4    0.37    0.28 
  -4   6  -3    3.30    0.47 
  -4   6  -3    3.21    0.45 
  -4   6  -3    3.21    0.40 
  -4   6  -2   42.93    1.03 
  -4   6  -2   49.40    1.17 
  -4   6  -1   37.44    1.16 
  -4   6  -1   32.50    1.00 
  -4   6   0    1.10    0.49 
  -4   6   1    0.47    0.44 
  -4   6   2    0.50    0.54 
  -4   6   3    0.29    0.53 
  -4   6   4    5.62    0.61 
  -4   6   5    7.95    0.58 
  -4   7  -5    1.98    0.22 
  -4   7  -4    1.19    0.27 
  -4   7  -4    1.44    0.32 
  -4   7  -3    0.17    0.27 
  -4   7  -3    0.48    0.33 
  -4   7  -3    0.07    0.24 
  -4   7  -2    0.95    0.33 
  -4   7  -2    0.84    0.30 
  -4   7  -1    0.88    0.37 
  -4   7  -1    1.05    0.38 
  -4   7   0    0.83    0.37 
  -4   7   0    0.90    0.39 
  -4   7   1    1.33    0.37 
  -4   8  -1    2.07    0.23 
  -4   8   1    3.53    0.30 
  -3  -9  -2   13.63    0.48 
  -3  -9  -1    0.45    0.25 
  -3  -9  -1    0.71    0.27 
  -3  -9  -1    0.53    0.25 
  -3  -9  -1    0.46    0.26 
  -3  -9   0    0.34    0.24 
  -3  -9   0    0.54    0.26 
  -3  -9   0    0.58    0.24 
  -3  -9   0    0.60    0.25 
  -3  -9   1    0.17    0.21 
  -3  -9   1    0.09    0.24 
  -3  -9   2   20.85    0.41 
  -3  -8  -5    4.86    0.36 
  -3  -8  -5    4.59    0.37 
  -3  -8  -5    3.82    0.39 
  -3  -8  -4    0.47    0.31 
  -3  -8  -4    0.34    0.31 
  -3  -8  -4    0.31    0.32 
  -3  -8  -3   52.83    1.21 
  -3  -8  -3   51.52    1.20 
  -3  -8  -3   43.77    1.50 
  -3  -8  -3   47.87    1.53 
  -3  -8  -3   55.03    1.08 
  -3  -8  -3   55.98    1.08 
  -3  -8  -3   51.65    1.17 
  -3  -8  -2    1.63    0.39 
  -3  -8  -2    1.82    0.37 
  -3  -8  -2    1.79    0.38 
  -3  -8  -1    1.03    0.36 
  -3  -8  -1    0.63    0.35 
  -3  -8  -1    0.19    0.37 
  -3  -8  -1    0.14    0.37 
  -3  -8   0    0.38    0.36 
  -3  -8   0    0.65    0.37 
  -3  -8   0    0.53    0.43 
  -3  -8   0    0.64    0.43 
  -3  -8   0    0.73    0.44 
  -3  -8   0    0.68    0.35 
  -3  -8   0    0.72    0.33 
  -3  -8   0    0.35    0.36 
  -3  -8   0    0.67    0.37 
  -3  -8   1    1.81    0.36 
  -3  -8   1    1.31    0.45 
  -3  -8   1    1.77    0.37 
  -3  -8   1    1.98    0.37 
  -3  -8   1    1.84    0.35 
  -3  -8   1    1.53    0.31 
  -3  -8   1    2.41    0.50 
  -3  -8   1    2.18    0.47 
  -3  -8   1    1.55    0.45 
  -3  -8   1    1.42    0.39 
  -3  -8   2    6.89    0.45 
  -3  -8   2    7.06    0.49 
  -3  -8   2    6.51    0.66 
  -3  -8   2    6.75    0.43 
  -3  -8   2    5.90    0.63 
  -3  -8   3    2.62    0.37 
  -3  -8   3    2.76    0.37 
  -3  -8   3    2.75    0.38 
  -3  -8   3    2.55    0.49 
  -3  -8   3    2.66    0.35 
  -3  -8   3    1.97    0.28 
  -3  -8   3    2.71    0.32 
  -3  -8   4    0.05    0.24 
  -3  -8   4    0.05    0.20 
  -3  -8   5    0.65    0.21 
  -3  -8   5    0.45    0.23 
  -3  -8   5    0.27    0.17 
  -3  -7  -7   10.77    0.51 
  -3  -7  -7   10.61    0.52 
  -3  -7  -7   11.85    0.46 
  -3  -7  -6    1.75    0.48 
  -3  -7  -6    2.07    0.38 
  -3  -7  -6    1.86    0.33 
  -3  -7  -6    2.03    0.34 
  -3  -7  -6    1.97    0.39 
  -3  -7  -5   46.76    1.09 
  -3  -7  -5   46.13    1.09 
  -3  -7  -5   38.83    1.02 
  -3  -7  -5   39.40    1.33 
  -3  -7  -5   42.75    1.35 
  -3  -7  -5   43.43    1.35 
  -3  -7  -5   50.54    1.26 
  -3  -7  -5   42.00    0.94 
  -3  -7  -4   13.73    0.64 
  -3  -7  -4   15.07    0.70 
  -3  -7  -4   13.33    0.84 
  -3  -7  -4   15.88    0.73 
  -3  -7  -4   15.50    0.72 
  -3  -7  -4   16.04    0.62 
  -3  -7  -4   16.10    0.62 
  -3  -7  -4   13.92    0.90 
  -3  -7  -4   14.36    0.91 
  -3  -7  -3   18.50    0.72 
  -3  -7  -3   18.68    0.76 
  -3  -7  -3   18.43    1.11 
  -3  -7  -3   19.24    0.82 
  -3  -7  -3   19.01    0.81 
  -3  -7  -3   19.45    0.75 
  -3  -7  -3   19.61    0.75 
  -3  -7  -3   18.11    1.04 
  -3  -7  -3   17.69    1.02 
  -3  -7  -2    0.22    0.31 
  -3  -7  -2    0.11    0.37 
  -3  -7  -2    0.08    0.36 
  -3  -7  -2   -0.08    0.60 
  -3  -7  -2    0.61    0.49 
  -3  -7  -2   -0.01    0.38 
  -3  -7  -1    3.30    0.51 
  -3  -7  -1    3.04    0.51 
  -3  -7  -1    4.00    0.45 
  -3  -7  -1    1.17    0.54 
  -3  -7  -1    1.20    0.54 
  -3  -7  -1    4.97    0.75 
  -3  -7  -1    4.59    0.61 
  -3  -7  -1    0.54    0.68 
  -3  -7  -1    4.60    0.47 
  -3  -7   0    0.18    0.29 
  -3  -7   0    0.14    0.42 
  -3  -7   0    0.05    0.39 
  -3  -7   0    0.12    0.36 
  -3  -7   0    0.22    0.38 
  -3  -7   0    0.08    0.39 
  -3  -7   0    0.10    0.40 
  -3  -7   0    0.01    0.54 
  -3  -7   0   -0.07    0.47 
  -3  -7   0    0.33    0.47 
  -3  -7   0    0.25    0.45 
  -3  -7   1   16.41    0.75 
  -3  -7   1   10.53    0.77 
  -3  -7   1   16.21    1.02 
  -3  -7   1   16.40    0.75 
  -3  -7   1   15.97    0.73 
  -3  -7   1   16.03    0.73 
  -3  -7   1   10.66    0.77 
  -3  -7   1   15.48    1.01 
  -3  -7   1   15.05    0.67 
  -3  -7   1   15.57    0.99 
  -3  -7   1   16.21    1.00 
  -3  -7   2    1.11    0.40 
  -3  -7   2    1.12    0.39 
  -3  -7   2    1.23    0.52 
  -3  -7   2    1.06    0.41 
  -3  -7   2    0.34    0.46 
  -3  -7   2    0.36    0.44 
  -3  -7   2    0.93    0.37 
  -3  -7   2    1.05    0.37 
  -3  -7   2    0.65    0.54 
  -3  -7   2    0.99    0.45 
  -3  -7   2    1.01    0.46 
  -3  -7   2    1.08    0.53 
  -3  -7   2    0.64    0.44 
  -3  -7   2    0.99    0.44 
  -3  -7   2    1.13    0.41 
  -3  -7   3   42.54    1.18 
  -3  -7   3   27.36    1.18 
  -3  -7   3   39.89    1.50 
  -3  -7   3   31.73    0.88 
  -3  -7   3   36.11    0.96 
  -3  -7   3   35.36    0.95 
  -3  -7   3   27.75    1.19 
  -3  -7   4    5.37    0.60 
  -3  -7   4    5.09    0.58 
  -3  -7   4   11.64    0.56 
  -3  -7   4   13.68    0.56 
  -3  -7   4   13.89    0.69 
  -3  -7   4   10.73    0.50 
  -3  -7   5    1.71    0.31 
  -3  -7   5    2.64    0.51 
  -3  -7   5    1.95    0.37 
  -3  -7   5    2.33    0.32 
  -3  -7   5    1.98    0.30 
  -3  -7   6    1.12    0.29 
  -3  -7   6    0.75    0.22 
  -3  -7   7    0.08    0.15 
  -3  -6  -9    1.56    0.26 
  -3  -6  -9    1.62    0.32 
  -3  -6  -8    4.18    0.42 
  -3  -6  -8    4.86    0.40 
  -3  -6  -7    7.43    0.51 
  -3  -6  -7    6.83    0.68 
  -3  -6  -6   52.79    1.52 
  -3  -6  -6   49.48    1.48 
  -3  -6  -6   53.61    1.20 
  -3  -6  -6   55.20    1.20 
  -3  -6  -6   52.91    1.28 
  -3  -6  -6   49.01    1.59 
  -3  -6  -5    6.86    0.52 
  -3  -6  -5    6.44    0.52 
  -3  -6  -5    5.25    0.82 
  -3  -6  -5    5.75    0.69 
  -3  -6  -5    6.10    0.64 
  -3  -6  -5    5.71    0.63 
  -3  -6  -5    7.72    0.89 
  -3  -6  -4    6.01    0.55 
  -3  -6  -4    5.56    0.71 
  -3  -6  -4    6.26    0.48 
  -3  -6  -4    6.40    0.48 
  -3  -6  -4    4.63    0.52 
  -3  -6  -4    1.85    0.53 
  -3  -6  -4    1.17    0.53 
  -3  -6  -4    5.89    0.81 
  -3  -6  -4    4.34    0.74 
  -3  -6  -4    4.69    0.64 
  -3  -6  -4    5.81    0.64 
  -3  -6  -4    5.38    0.64 
  -3  -6  -4    7.45    0.89 
  -3  -6  -3   23.41    0.88 
  -3  -6  -3   26.59    0.85 
  -3  -6  -3   25.48    0.83 
  -3  -6  -3   19.72    0.79 
  -3  -6  -3   13.39    0.90 
  -3  -6  -3   12.00    0.89 
  -3  -6  -3   20.92    1.18 
  -3  -6  -3   24.24    1.22 
  -3  -6  -3   25.76    1.14 
  -3  -6  -3   24.91    1.14 
  -3  -6  -3   19.94    0.99 
  -3  -6  -3   20.67    1.16 
  -3  -6  -2    4.81    0.68 
  -3  -6  -2    5.47    0.45 
  -3  -6  -2    6.71    0.51 
  -3  -6  -2    6.35    0.51 
  -3  -6  -2    6.14    0.79 
  -3  -6  -2    5.37    0.60 
  -3  -6  -2    5.39    0.52 
  -3  -6  -1   25.34    0.84 
  -3  -6  -1   25.18    0.87 
  -3  -6  -1   25.63    1.13 
  -3  -6  -1   21.79    0.92 
  -3  -6  -1   21.65    0.92 
  -3  -6  -1   27.35    0.85 
  -3  -6  -1   25.49    0.94 
  -3  -6  -1   27.23    0.96 
  -3  -6  -1   28.48    1.32 
  -3  -6  -1   24.89    1.13 
  -3  -6  -1   22.14    1.11 
  -3  -6  -1   24.06    0.85 
  -3  -6   0   36.43    1.03 
  -3  -6   0   37.71    1.38 
  -3  -6   0   28.30    1.13 
  -3  -6   0   35.40    1.00 
  -3  -6   0   33.70    1.05 
  -3  -6   0   33.57    1.06 
  -3  -6   0   36.91    1.44 
  -3  -6   0   26.85    1.12 
  -3  -6   0   34.61    1.33 
  -3  -6   0   35.94    1.39 
  -3  -6   0   34.82    1.39 
  -3  -6   0   34.67    1.12 
  -3  -6   1   44.58    1.53 
  -3  -6   1   44.57    1.55 
  -3  -6   1   50.52    1.26 
  -3  -6   1   48.42    1.61 
  -3  -6   1   41.18    1.38 
  -3  -6   1   47.90    1.20 
  -3  -6   1   42.96    1.16 
  -3  -6   1   45.44    1.18 
  -3  -6   1   40.00    1.37 
  -3  -6   1   44.82    1.31 
  -3  -6   1   49.37    1.60 
  -3  -6   2   17.89    0.73 
  -3  -6   2   19.55    1.12 
  -3  -6   2   19.81    1.04 
  -3  -6   2   16.77    0.94 
  -3  -6   2   14.56    0.87 
  -3  -6   2   16.59    0.95 
  -3  -6   2   19.89    1.13 
  -3  -6   2   19.09    0.82 
  -3  -6   2   19.48    0.85 
  -3  -6   2   20.05    0.86 
  -3  -6   2   17.83    0.73 
  -3  -6   2   15.65    0.70 
  -3  -6   2   18.16    0.74 
  -3  -6   2   18.55    0.74 
  -3  -6   2   16.96    0.99 
  -3  -6   2   17.91    1.00 
  -3  -6   2   19.14    0.94 
  -3  -6   3  383.45    6.67 
  -3  -6   3  368.36    5.08 
  -3  -6   3  406.95    5.22 
  -3  -6   3  393.91    4.56 
  -3  -6   3  347.12    4.92 
  -3  -6   3  338.90    4.91 
  -3  -6   3  372.19    5.08 
  -3  -6   3  403.15    4.63 
  -3  -6   3  406.61    4.62 
  -3  -6   3  386.32    4.36 
  -3  -6   3  372.57    4.27 
  -3  -6   4   27.33    0.81 
  -3  -6   4   27.67    0.82 
  -3  -6   4   25.53    1.07 
  -3  -6   4   30.93    1.41 
  -3  -6   4   25.60    1.17 
  -3  -6   4   31.16    1.02 
  -3  -6   4   25.73    0.94 
  -3  -6   4   28.85    0.93 
  -3  -6   4   29.78    0.99 
  -3  -6   4   26.76    1.18 
  -3  -6   4   28.11    0.86 
  -3  -6   4   30.45    0.89 
  -3  -6   4   26.32    1.04 
  -3  -6   5   22.08    0.93 
  -3  -6   5   21.17    1.04 
  -3  -6   5   21.60    1.12 
  -3  -6   5   23.88    0.84 
  -3  -6   5   23.64    0.88 
  -3  -6   5   20.19    1.02 
  -3  -6   5   22.26    0.72 
  -3  -6   5   23.15    0.72 
  -3  -6   5   25.33    0.76 
  -3  -6   6    6.65    0.51 
  -3  -6   6    4.36    0.55 
  -3  -6   6    5.78    0.45 
  -3  -6   6    6.00    0.49 
  -3  -6   6    6.22    0.54 
  -3  -6   6    5.50    0.61 
  -3  -6   6    7.87    0.44 
  -3  -6   6    6.06    0.41 
  -3  -6   7    2.06    0.32 
  -3  -6   7    1.98    0.26 
  -3  -6   7    2.40    0.29 
  -3  -6   7    2.11    0.33 
  -3  -6   8    6.69    0.38 
  -3  -6   8    7.25    0.31 
  -3  -5  -9   17.67    0.60 
  -3  -5  -9   15.78    0.44 
  -3  -5  -9   17.71    0.64 
  -3  -5  -8   17.78    0.70 
  -3  -5  -8   17.09    0.55 
  -3  -5  -7   20.69    0.70 
  -3  -5  -7   20.56    0.69 
  -3  -5  -7   21.59    0.67 
  -3  -5  -7   23.53    0.93 
  -3  -5  -7   21.66    1.10 
  -3  -5  -7   21.99    0.80 
  -3  -5  -7   20.81    0.84 
  -3  -5  -6    0.14    0.38 
  -3  -5  -6    0.13    0.37 
  -3  -5  -6    0.08    0.39 
  -3  -5  -6    0.14    0.31 
  -3  -5  -6    0.04    0.33 
  -3  -5  -6    0.14    0.56 
  -3  -5  -6    0.02    0.74 
  -3  -5  -6    0.07    0.26 
  -3  -5  -6    0.06    0.50 
  -3  -5  -6   -0.14    0.37 
  -3  -5  -6    0.09    0.40 
  -3  -5  -6    0.13    0.45 
  -3  -5  -5   14.40    0.81 
  -3  -5  -5   13.42    0.56 
  -3  -5  -5   13.19    0.88 
  -3  -5  -5   13.06    0.71 
  -3  -5  -5   13.74    0.58 
  -3  -5  -5   14.03    0.66 
  -3  -5  -5   13.37    0.66 
  -3  -5  -5   15.43    0.87 
  -3  -5  -5   13.27    0.83 
  -3  -5  -5   11.78    0.64 
  -3  -5  -4   -0.09    0.44 
  -3  -5  -4   -0.20    0.61 
  -3  -5  -4    0.07    0.30 
  -3  -5  -4   -0.11    0.32 
  -3  -5  -4   -0.01    0.32 
  -3  -5  -4    0.02    0.37 
  -3  -5  -4   -0.07    0.33 
  -3  -5  -4    0.03    0.55 
  -3  -5  -4   -0.01    0.46 
  -3  -5  -4    0.46    0.39 
  -3  -5  -4    0.03    0.37 
  -3  -5  -4   -0.01    0.26 
  -3  -5  -4   -0.04    0.82 
  -3  -5  -3   49.04    1.18 
  -3  -5  -3   45.51    1.52 
  -3  -5  -3   33.90    1.10 
  -3  -5  -3   43.21    1.09 
  -3  -5  -3   50.31    1.07 
  -3  -5  -3   50.00    1.08 
  -3  -5  -3   50.63    1.16 
  -3  -5  -3   52.87    1.18 
  -3  -5  -3   44.86    1.36 
  -3  -5  -3   51.74    1.40 
  -3  -5  -3   52.75    1.48 
  -3  -5  -3   52.51    1.49 
  -3  -5  -3   47.18    1.50 
  -3  -5  -3   43.63    1.57 
  -3  -5  -2   75.25    1.35 
  -3  -5  -2   67.60    1.23 
  -3  -5  -2   74.08    1.33 
  -3  -5  -2   66.55    1.37 
  -3  -5  -2   61.30    1.76 
  -3  -5  -2   71.31    1.85 
  -3  -5  -2   70.18    1.62 
  -3  -5  -2   64.66    1.44 
  -3  -5  -2   60.77    1.74 
  -3  -5  -1    7.79    0.57 
  -3  -5  -1   10.13    0.69 
  -3  -5  -1   10.53    0.55 
  -3  -5  -1   11.01    0.52 
  -3  -5  -1   10.53    0.54 
  -3  -5  -1    9.54    0.57 
  -3  -5  -1    9.39    0.57 
  -3  -5  -1   10.07    0.51 
  -3  -5  -1    9.32    0.54 
  -3  -5  -1    8.30    0.59 
  -3  -5  -1   11.15    0.83 
  -3  -5  -1   10.56    0.68 
  -3  -5  -1    8.36    0.69 
  -3  -5  -1   10.24    0.58 
  -3  -5   0    5.14    0.58 
  -3  -5   0    4.33    0.54 
  -3  -5   0    5.03    0.55 
  -3  -5   0    3.93    0.51 
  -3  -5   0    4.63    0.41 
  -3  -5   0    4.61    0.46 
  -3  -5   0    4.45    0.45 
  -3  -5   0    4.86    0.41 
  -3  -5   0    4.07    0.51 
  -3  -5   0    5.36    0.69 
  -3  -5   0    4.47    0.54 
  -3  -5   0    4.68    0.47 
  -3  -5   0    3.38    0.51 
  -3  -5   1    6.12    0.60 
  -3  -5   1    6.19    0.60 
  -3  -5   1    6.88    0.48 
  -3  -5   1    5.68    0.57 
  -3  -5   1    5.99    0.61 
  -3  -5   1    6.38    0.47 
  -3  -5   1    6.04    0.44 
  -3  -5   1    5.66    0.58 
  -3  -5   1    6.62    0.56 
  -3  -5   1    6.31    0.62 
  -3  -5   2  113.97    1.89 
  -3  -5   2  103.83    2.13 
  -3  -5   2  107.01    1.83 
  -3  -5   2  106.62    1.81 
  -3  -5   2  103.31    1.78 
  -3  -5   2   96.12    1.82 
  -3  -5   2   98.35    2.12 
  -3  -5   2   98.44    2.14 
  -3  -5   2  101.63    2.12 
  -3  -5   2   96.67    1.58 
  -3  -5   2  112.95    2.22 
  -3  -5   3    8.48    0.55 
  -3  -5   3    8.56    0.63 
  -3  -5   3    7.83    0.65 
  -3  -5   3    9.10    0.74 
  -3  -5   3    8.65    0.79 
  -3  -5   3    8.88    0.60 
  -3  -5   3    8.42    0.58 
  -3  -5   3    8.79    0.58 
  -3  -5   3    8.61    0.72 
  -3  -5   3    9.36    0.73 
  -3  -5   3    8.27    0.55 
  -3  -5   4  133.19    2.00 
  -3  -5   4  130.39    2.02 
  -3  -5   4  144.22    2.56 
  -3  -5   4  146.04    2.73 
  -3  -5   4  136.23    2.92 
  -3  -5   4  138.65    2.22 
  -3  -5   4  132.24    2.10 
  -3  -5   4  133.06    2.09 
  -3  -5   4  155.08    2.38 
  -3  -5   4  146.11    2.72 
  -3  -5   4  117.25    2.88 
  -3  -5   4  158.16    2.93 
  -3  -5   4  134.15    1.99 
  -3  -5   4  140.62    2.08 
  -3  -5   5   11.43    0.60 
  -3  -5   5   11.16    0.58 
  -3  -5   5   11.01    0.82 
  -3  -5   5   10.94    0.55 
  -3  -5   5   10.29    0.56 
  -3  -5   5   11.37    0.69 
  -3  -5   5   10.26    0.84 
  -3  -5   5   11.02    0.82 
  -3  -5   5   10.42    0.63 
  -3  -5   5   11.19    0.67 
  -3  -5   5   11.85    0.87 
  -3  -5   5   10.86    0.75 
  -3  -5   6    7.14    0.56 
  -3  -5   6    5.50    0.63 
  -3  -5   6    5.62    0.48 
  -3  -5   6    7.67    0.57 
  -3  -5   6    6.77    0.46 
  -3  -5   6    3.85    0.66 
  -3  -5   6    7.10    0.65 
  -3  -5   6    8.08    0.50 
  -3  -5   7   11.89    0.51 
  -3  -5   7   13.03    0.51 
  -3  -5   7   15.91    0.82 
  -3  -5   7   15.33    0.71 
  -3  -5   7   14.29    0.65 
  -3  -5   8   13.60    0.47 
  -3  -5   8   15.28    0.55 
  -3  -5   9   38.16    0.72 
  -3  -4 -10    1.01    0.30 
  -3  -4 -10    1.01    0.23 
  -3  -4  -9   -0.02    0.44 
  -3  -4  -9    0.59    0.32 
  -3  -4  -9    0.27    0.45 
  -3  -4  -9    0.26    0.33 
  -3  -4  -8    3.69    0.62 
  -3  -4  -8    3.50    0.44 
  -3  -4  -8    2.57    0.45 
  -3  -4  -7   20.37    0.70 
  -3  -4  -7   19.10    0.68 
  -3  -4  -7   19.14    0.80 
  -3  -4  -7   21.36    1.30 
  -3  -4  -6   -0.04    0.34 
  -3  -4  -6    0.51    0.42 
  -3  -4  -6    0.16    0.37 
  -3  -4  -6    0.15    0.50 
  -3  -4  -6    0.09    0.32 
  -3  -4  -6    0.33    0.39 
  -3  -4  -6    0.03    0.32 
  -3  -4  -6    0.55    0.44 
  -3  -4  -6   -0.01    0.33 
  -3  -4  -6   -0.10    0.70 
  -3  -4  -5   13.43    0.67 
  -3  -4  -5   13.21    0.59 
  -3  -4  -5   12.71    0.58 
  -3  -4  -5   12.56    1.10 
  -3  -4  -5   12.84    0.83 
  -3  -4  -5   13.19    0.76 
  -3  -4  -5   12.29    0.73 
  -3  -4  -5   14.37    0.75 
  -3  -4  -4    4.05    0.53 
  -3  -4  -4    3.23    0.38 
  -3  -4  -4    5.42    0.40 
  -3  -4  -4    5.85    0.55 
  -3  -4  -4    5.13    0.38 
  -3  -4  -4    4.85    0.42 
  -3  -4  -4    5.12    0.42 
  -3  -4  -4    4.24    0.59 
  -3  -4  -4    4.72    0.60 
  -3  -4  -4    5.11    0.52 
  -3  -4  -4    5.10    0.52 
  -3  -4  -4    4.49    0.37 
  -3  -4  -4    6.02    0.67 
  -3  -4  -3    0.13    0.23 
  -3  -4  -3   -0.05    0.41 
  -3  -4  -3    0.14    0.26 
  -3  -4  -3    0.26    0.27 
  -3  -4  -3    0.20    0.28 
  -3  -4  -3    0.39    0.27 
  -3  -4  -3    0.09    0.32 
  -3  -4  -3    0.39    0.50 
  -3  -4  -3    0.19    0.29 
  -3  -4  -3    0.24    0.37 
  -3  -4  -3    0.06    0.32 
  -3  -4  -3    0.16    0.30 
  -3  -4  -2    8.74    0.49 
  -3  -4  -2   10.43    0.44 
  -3  -4  -2   11.02    0.48 
  -3  -4  -2   10.87    0.48 
  -3  -4  -2    9.94    0.61 
  -3  -4  -2   10.64    0.75 
  -3  -4  -2    9.83    0.75 
  -3  -4  -2   10.88    0.46 
  -3  -4  -2   10.39    0.51 
  -3  -4  -2   10.64    0.57 
  -3  -4  -2    8.93    0.67 
  -3  -4  -1   16.30    0.63 
  -3  -4  -1   19.50    0.79 
  -3  -4  -1   19.03    0.61 
  -3  -4  -1   19.17    0.61 
  -3  -4  -1   18.97    0.57 
  -3  -4  -1   20.37    0.68 
  -3  -4  -1   19.04    0.66 
  -3  -4  -1   19.86    0.78 
  -3  -4  -1   16.59    0.63 
  -3  -4  -1   19.98    0.90 
  -3  -4  -1   20.10    0.74 
  -3  -4  -1   15.70    0.79 
  -3  -4  -1   19.95    0.61 
  -3  -4  -1   18.56    0.62 
  -3  -4   0  151.51    1.98 
  -3  -4   0  133.95    2.14 
  -3  -4   0  148.51    2.37 
  -3  -4   0  137.45    1.88 
  -3  -4   0  130.72    1.95 
  -3  -4   0  128.35    1.94 
  -3  -4   0  147.61    2.42 
  -3  -4   0  146.99    2.40 
  -3  -4   0  149.98    2.50 
  -3  -4   0  130.81    2.13 
  -3  -4   0  145.78    2.31 
  -3  -4   0  143.80    2.22 
  -3  -4   1   78.87    1.63 
  -3  -4   1   82.80    1.42 
  -3  -4   1   81.30    1.41 
  -3  -4   1   81.61    1.38 
  -3  -4   1   74.14    1.36 
  -3  -4   1   88.28    1.85 
  -3  -4   1   79.77    1.64 
  -3  -4   1   87.19    1.43 
  -3  -4   1   86.70    1.68 
  -3  -4   2   17.93    0.82 
  -3  -4   2   17.22    0.65 
  -3  -4   2   16.69    0.65 
  -3  -4   2   17.19    0.64 
  -3  -4   2   16.59    0.78 
  -3  -4   2   16.10    0.77 
  -3  -4   2   16.49    0.66 
  -3  -4   2   17.93    0.82 
  -3  -4   2   19.06    0.84 
  -3  -4   3  109.53    1.77 
  -3  -4   3  117.96    1.79 
  -3  -4   3  123.46    2.13 
  -3  -4   3  127.13    2.33 
  -3  -4   3  126.88    2.45 
  -3  -4   3  116.14    1.83 
  -3  -4   3  119.47    1.89 
  -3  -4   3  115.26    1.84 
  -3  -4   3  127.01    1.97 
  -3  -4   3  127.71    2.33 
  -3  -4   3  132.93    2.41 
  -3  -4   3  124.84    2.40 
  -3  -4   4   32.71    0.84 
  -3  -4   4   34.99    0.92 
  -3  -4   4   36.63    1.31 
  -3  -4   4   37.38    1.27 
  -3  -4   4   32.92    0.88 
  -3  -4   4   33.14    0.85 
  -3  -4   4   39.74    0.97 
  -3  -4   4   35.93    0.96 
  -3  -4   4   36.28    1.04 
  -3  -4   4   36.59    1.32 
  -3  -4   4   37.32    1.27 
  -3  -4   4   34.15    0.96 
  -3  -4   4   30.97    0.96 
  -3  -4   4   28.77    1.01 
  -3  -4   4   37.71    1.31 
  -3  -4   4   36.11    1.18 
  -3  -4   5    7.07    0.50 
  -3  -4   5    6.78    0.70 
  -3  -4   5    7.04    0.67 
  -3  -4   5    7.00    0.47 
  -3  -4   5    7.05    0.54 
  -3  -4   5    7.21    0.47 
  -3  -4   5    7.36    0.53 
  -3  -4   5    8.22    0.58 
  -3  -4   5    5.41    0.56 
  -3  -4   5    7.30    0.49 
  -3  -4   5    6.97    0.46 
  -3  -4   5    8.33    0.72 
  -3  -4   5    6.17    0.65 
  -3  -4   5    7.73    0.68 
  -3  -4   6   17.95    0.69 
  -3  -4   6   13.41    0.87 
  -3  -4   6   14.72    0.62 
  -3  -4   6   13.20    0.62 
  -3  -4   6   13.19    0.77 
  -3  -4   6   14.89    0.62 
  -3  -4   6   15.10    0.73 
  -3  -4   6   13.62    0.56 
  -3  -4   6   18.57    0.97 
  -3  -4   6   11.51    0.81 
  -3  -4   7    6.02    0.45 
  -3  -4   7    5.71    0.57 
  -3  -4   7    6.12    0.42 
  -3  -4   7    6.08    0.41 
  -3  -4   7    7.31    0.67 
  -3  -4   7    6.96    0.46 
  -3  -4   7    6.34    0.51 
  -3  -4   8    0.39    0.22 
  -3  -4   8    0.25    0.32 
  -3  -4   8    0.06    0.31 
  -3  -4   8    0.32    0.24 
  -3  -4   8    0.51    0.28 
  -3  -4   8    0.22    0.28 
  -3  -4   9    3.16    0.30 
  -3  -4   9    3.14    0.35 
  -3  -4   9    4.19    0.35 
  -3  -4   9    3.17    0.29 
  -3  -4  10    5.94    0.29 
  -3  -3 -11   14.26    0.43 
  -3  -3 -10    4.33    0.42 
  -3  -3 -10    4.36    0.55 
  -3  -3 -10    4.34    0.41 
  -3  -3  -9    0.46    0.45 
  -3  -3  -9    2.34    0.49 
  -3  -3  -9    2.29    0.52 
  -3  -3  -9    1.81    0.40 
  -3  -3  -9    2.48    0.39 
  -3  -3  -9    0.69    0.45 
  -3  -3  -9    1.68    0.53 
  -3  -3  -8  201.50    2.83 
  -3  -3  -8  194.13    2.63 
  -3  -3  -8  173.92    2.56 
  -3  -3  -8  179.78    2.64 
  -3  -3  -8  194.36    3.40 
  -3  -3  -8  161.30    3.19 
  -3  -3  -8  195.96    3.37 
  -3  -3  -7    0.78    0.37 
  -3  -3  -7    0.92    0.42 
  -3  -3  -7    1.54    0.53 
  -3  -3  -7    1.10    0.53 
  -3  -3  -7    1.33    0.34 
  -3  -3  -7    1.11    0.35 
  -3  -3  -7    0.73    0.43 
  -3  -3  -7    0.93    0.65 
  -3  -3  -7    0.48    0.38 
  -3  -3  -6   90.47    1.67 
  -3  -3  -6   90.31    1.57 
  -3  -3  -6   82.80    1.51 
  -3  -3  -6   86.19    1.44 
  -3  -3  -6   85.42    1.44 
  -3  -3  -6   83.02    2.27 
  -3  -3  -6   97.26    2.10 
  -3  -3  -6   96.13    2.12 
  -3  -3  -5   43.94    1.05 
  -3  -3  -5   42.41    1.00 
  -3  -3  -5   45.53    1.33 
  -3  -3  -5   45.00    1.07 
  -3  -3  -5   42.06    0.93 
  -3  -3  -5   41.36    0.93 
  -3  -3  -5   45.67    1.33 
  -3  -3  -5   40.84    1.55 
  -3  -3  -5   44.58    1.24 
  -3  -3  -5   46.79    1.33 
  -3  -3  -5   42.77    1.23 
  -3  -3  -5   43.44    1.29 
  -3  -3  -4   52.66    1.35 
  -3  -3  -4   55.20    1.13 
  -3  -3  -4   52.01    1.02 
  -3  -3  -4   52.41    1.02 
  -3  -3  -4   55.91    1.38 
  -3  -3  -4   51.42    1.68 
  -3  -3  -4   54.13    1.32 
  -3  -3  -4   53.38    1.30 
  -3  -3  -4   53.37    1.34 
  -3  -3  -3  158.41    2.17 
  -3  -3  -3  192.76    2.39 
  -3  -3  -3  178.20    2.21 
  -3  -3  -3  182.75    2.24 
  -3  -3  -3  198.10    2.33 
  -3  -3  -3  193.96    2.31 
  -3  -3  -3  202.67    2.42 
  -3  -3  -3  180.60    2.66 
  -3  -3  -3  183.30    2.68 
  -3  -3  -3  176.61    2.54 
  -3  -3  -2   95.11    1.47 
  -3  -3  -2  101.97    1.44 
  -3  -3  -2  102.15    1.43 
  -3  -3  -2  106.12    1.72 
  -3  -3  -2   98.92    1.75 
  -3  -3  -2  106.45    1.70 
  -3  -3  -2  103.92    1.90 
  -3  -3  -2  106.02    1.45 
  -3  -3  -2  105.24    1.53 
  -3  -3  -1    3.25    0.28 
  -3  -3  -1    3.36    0.33 
  -3  -3  -1    3.35    0.37 
  -3  -3  -1    4.76    0.31 
  -3  -3  -1    3.51    0.34 
  -3  -3  -1    3.41    0.34 
  -3  -3  -1    3.46    0.38 
  -3  -3  -1    3.59    0.51 
  -3  -3  -1    3.18    0.40 
  -3  -3  -1    3.18    0.39 
  -3  -3  -1    2.53    0.42 
  -3  -3  -1    3.03    0.34 
  -3  -3   0    1.82    0.30 
  -3  -3   0    1.44    0.25 
  -3  -3   0    1.46    0.30 
  -3  -3   0    1.37    0.30 
  -3  -3   0    1.59    0.32 
  -3  -3   0    2.11    0.44 
  -3  -3   0    1.46    0.28 
  -3  -3   0    1.43    0.29 
  -3  -3   0    1.61    0.34 
  -3  -3   0    1.47    0.34 
  -3  -3   0    1.78    0.24 
  -3  -3   1  339.69    3.67 
  -3  -3   1  341.43    3.69 
  -3  -3   1  298.24    3.60 
  -3  -3   1  310.88    3.62 
  -3  -3   1  366.31    3.73 
  -3  -3   1  353.09    3.97 
  -3  -3   1  377.82    4.28 
  -3  -3   1  369.76    4.12 
  -3  -3   1  352.69    3.97 
  -3  -3   2   39.32    1.07 
  -3  -3   2   40.01    1.13 
  -3  -3   2   37.38    0.84 
  -3  -3   2   35.76    0.82 
  -3  -3   2   36.22    0.83 
  -3  -3   2   39.53    0.87 
  -3  -3   2   39.97    1.12 
  -3  -3   2   38.37    1.05 
  -3  -3   2   40.62    1.09 
  -3  -3   2   37.59    0.90 
  -3  -3   3  135.38    2.27 
  -3  -3   3  128.63    2.20 
  -3  -3   3  116.55    1.73 
  -3  -3   3  126.87    1.83 
  -3  -3   3  109.35    1.64 
  -3  -3   3  131.69    1.87 
  -3  -3   3  126.49    2.17 
  -3  -3   3  126.46    2.03 
  -3  -3   3  131.04    2.22 
  -3  -3   4    0.40    0.31 
  -3  -3   4    0.28    0.29 
  -3  -3   4    0.39    0.38 
  -3  -3   4    0.12    0.26 
  -3  -3   4    0.32    0.27 
  -3  -3   4    0.20    0.28 
  -3  -3   4    0.33    0.35 
  -3  -3   4    0.39    0.32 
  -3  -3   4    0.26    0.37 
  -3  -3   4    0.55    0.38 
  -3  -3   4    0.11    0.39 
  -3  -3   4    0.24    0.40 
  -3  -3   4    0.39    0.35 
  -3  -3   5    4.94    0.42 
  -3  -3   5    5.21    0.44 
  -3  -3   5    4.91    0.39 
  -3  -3   5    3.99    0.50 
  -3  -3   5    5.75    0.46 
  -3  -3   5    4.90    0.57 
  -3  -3   5    5.50    0.59 
  -3  -3   5    5.04    0.42 
  -3  -3   5    4.81    0.44 
  -3  -3   6    0.51    0.32 
  -3  -3   6    0.33    0.32 
  -3  -3   6    0.31    0.32 
  -3  -3   6    0.49    0.43 
  -3  -3   6    0.58    0.39 
  -3  -3   6    0.61    0.39 
  -3  -3   6    0.18    0.47 
  -3  -3   6    0.75    0.44 
  -3  -3   6    0.65    0.35 
  -3  -3   6    0.33    0.35 
  -3  -3   6    0.29    0.26 
  -3  -3   7   11.21    0.59 
  -3  -3   7   12.33    0.59 
  -3  -3   7   14.33    0.94 
  -3  -3   7   13.23    0.73 
  -3  -3   7   11.84    0.76 
  -3  -3   7   13.07    0.54 
  -3  -3   7   12.03    0.56 
  -3  -3   7   14.69    0.57 
  -3  -3   7   14.52    0.92 
  -3  -3   7   13.19    0.61 
  -3  -3   8    5.54    0.39 
  -3  -3   8    5.22    0.50 
  -3  -3   8    5.57    0.54 
  -3  -3   8    5.80    0.43 
  -3  -3   8    5.97    0.44 
  -3  -3   8    5.69    0.39 
  -3  -3   9   14.60    0.64 
  -3  -3   9   16.42    0.73 
  -3  -3   9   15.32    0.56 
  -3  -3   9   14.27    0.55 
  -3  -3   9   14.88    0.49 
  -3  -3  10    0.19    0.21 
  -3  -3  10    0.37    0.22 
  -3  -2 -12    0.08    0.10 
  -3  -2 -11    2.01    0.32 
  -3  -2 -11    1.91    0.29 
  -3  -2 -10    0.60    0.41 
  -3  -2 -10    0.87    0.43 
  -3  -2 -10    0.78    0.34 
  -3  -2 -10    0.65    0.31 
  -3  -2 -10    0.93    0.45 
  -3  -2 -10    0.56    0.37 
  -3  -2  -9   42.49    1.39 
  -3  -2  -9   42.24    1.03 
  -3  -2  -9   36.91    0.96 
  -3  -2  -9   43.00    1.07 
  -3  -2  -9   36.83    0.95 
  -3  -2  -9   42.81    1.00 
  -3  -2  -9   39.08    1.48 
  -3  -2  -9   40.58    1.50 
  -3  -2  -8    4.30    0.56 
  -3  -2  -8    3.78    0.45 
  -3  -2  -8    3.20    0.50 
  -3  -2  -8    3.40    0.46 
  -3  -2  -8    3.04    0.46 
  -3  -2  -8    2.49    0.48 
  -3  -2  -8    4.07    0.68 
  -3  -2  -8    3.78    0.67 
  -3  -2  -8    3.72    0.61 
  -3  -2  -7    7.56    0.81 
  -3  -2  -7    7.25    0.79 
  -3  -2  -7    7.97    0.64 
  -3  -2  -7    7.92    0.53 
  -3  -2  -7    6.72    0.56 
  -3  -2  -7    7.71    0.55 
  -3  -2  -7    6.06    0.52 
  -3  -2  -7    7.18    0.75 
  -3  -2  -7    5.90    0.52 
  -3  -2  -7    5.65    0.56 
  -3  -2  -7    6.83    0.73 
  -3  -2  -7    7.80    0.79 
  -3  -2  -6    0.36    0.41 
  -3  -2  -6    0.61    0.33 
  -3  -2  -6    1.19    0.42 
  -3  -2  -6    0.63    0.52 
  -3  -2  -6    0.47    0.46 
  -3  -2  -6    0.35    0.31 
  -3  -2  -6    0.66    0.32 
  -3  -2  -6    0.56    0.34 
  -3  -2  -6    0.57    0.48 
  -3  -2  -6    0.21    0.46 
  -3  -2  -6    1.28    0.62 
  -3  -2  -5   27.61    0.77 
  -3  -2  -5   25.94    0.77 
  -3  -2  -5   26.24    1.06 
  -3  -2  -5   25.01    0.70 
  -3  -2  -5   25.33    0.70 
  -3  -2  -5   29.09    1.04 
  -3  -2  -5   23.66    1.13 
  -3  -2  -5   22.78    0.75 
  -3  -2  -5   26.54    1.06 
  -3  -2  -4    0.74    0.32 
  -3  -2  -4    0.42    0.30 
  -3  -2  -4   -0.07    0.35 
  -3  -2  -4    0.31    0.32 
  -3  -2  -4    0.58    0.30 
  -3  -2  -4    0.10    0.26 
  -3  -2  -4    0.27    0.26 
  -3  -2  -4    0.37    0.38 
  -3  -2  -4    0.32    0.24 
  -3  -2  -4    0.13    0.52 
  -3  -2  -3    7.94    0.42 
  -3  -2  -3    8.21    0.46 
  -3  -2  -3    7.61    0.38 
  -3  -2  -3    7.97    0.40 
  -3  -2  -3    8.29    0.41 
  -3  -2  -3    7.72    0.42 
  -3  -2  -3    6.82    0.68 
  -3  -2  -3    7.55    0.53 
  -3  -2  -3    8.86    0.58 
  -3  -2  -3    7.17    0.53 
  -3  -2  -3    7.66    0.50 
  -3  -2  -3    8.01    0.50 
  -3  -2  -2  176.49    2.05 
  -3  -2  -2  180.94    2.08 
  -3  -2  -2  169.68    2.51 
  -3  -2  -2  173.62    2.31 
  -3  -2  -2  177.74    2.21 
  -3  -2  -2  178.48    2.15 
  -3  -2  -2  168.32    2.37 
  -3  -2  -1    5.89    0.31 
  -3  -2  -1    5.15    0.29 
  -3  -2  -1    5.71    0.30 
  -3  -2  -1    5.92    0.37 
  -3  -2  -1    5.52    0.36 
  -3  -2  -1    5.60    0.37 
  -3  -2  -1    5.95    0.42 
  -3  -2  -1    6.00    0.45 
  -3  -2  -1    5.50    0.43 
  -3  -2   0    9.35    0.40 
  -3  -2   0    9.17    0.34 
  -3  -2   0    9.23    0.50 
  -3  -2   0    9.86    0.39 
  -3  -2   0    9.74    0.54 
  -3  -2   0    9.88    0.35 
  -3  -2   1  117.93    1.54 
  -3  -2   1  132.15    1.81 
  -3  -2   1  136.35    1.99 
  -3  -2   1  138.04    1.68 
  -3  -2   1  125.94    1.58 
  -3  -2   1  118.88    1.54 
  -3  -2   1  131.41    1.80 
  -3  -2   2    6.34    0.34 
  -3  -2   2    6.53    0.37 
  -3  -2   2    4.99    0.39 
  -3  -2   2    7.66    0.52 
  -3  -2   2    7.65    0.48 
  -3  -2   2    6.71    0.35 
  -3  -2   2    7.98    0.39 
  -3  -2   2    8.13    0.50 
  -3  -2   2    7.78    0.49 
  -3  -2   3   47.40    1.11 
  -3  -2   3   42.02    0.84 
  -3  -2   3   42.88    0.87 
  -3  -2   3   49.06    1.17 
  -3  -2   3   42.67    0.84 
  -3  -2   3   50.48    0.95 
  -3  -2   3   47.83    1.15 
  -3  -2   4   38.69    0.88 
  -3  -2   4   44.00    1.14 
  -3  -2   4   37.31    1.00 
  -3  -2   4   47.57    1.08 
  -3  -2   4   47.55    1.25 
  -3  -2   4   37.98    0.87 
  -3  -2   4   50.26    1.29 
  -3  -2   5   13.39    0.56 
  -3  -2   5   12.48    0.54 
  -3  -2   5   15.95    0.68 
  -3  -2   5   11.81    0.64 
  -3  -2   5   15.85    0.61 
  -3  -2   5   16.17    0.82 
  -3  -2   5   15.11    0.82 
  -3  -2   5   16.02    0.63 
  -3  -2   5   15.18    0.60 
  -3  -2   6    0.36    0.30 
  -3  -2   6    0.22    0.30 
  -3  -2   6    0.48    0.38 
  -3  -2   6    0.26    0.38 
  -3  -2   6    0.45    0.34 
  -3  -2   6    0.31    0.32 
  -3  -2   6    0.20    0.34 
  -3  -2   6    0.39    0.24 
  -3  -2   6    0.29    0.41 
  -3  -2   7    5.86    0.46 
  -3  -2   7    6.47    0.44 
  -3  -2   7    6.57    0.49 
  -3  -2   7    6.57    0.78 
  -3  -2   7    6.31    0.53 
  -3  -2   7    6.65    0.67 
  -3  -2   7    6.22    0.42 
  -3  -2   7    5.77    0.47 
  -3  -2   8    6.20    0.43 
  -3  -2   8    7.07    0.47 
  -3  -2   8    7.07    0.43 
  -3  -2   8    6.59    0.48 
  -3  -2   8    6.04    0.47 
  -3  -2   8    6.45    0.53 
  -3  -2   9   22.15    0.64 
  -3  -2   9   21.62    0.72 
  -3  -2   9   20.99    0.75 
  -3  -2   9   21.62    0.71 
  -3  -2  10    7.83    0.40 
  -3  -2  10    8.08    0.41 
  -3  -1 -11    3.89    0.30 
  -3  -1 -11    4.61    0.37 
  -3  -1 -10    7.98    0.47 
  -3  -1 -10    8.16    0.47 
  -3  -1 -10    8.89    0.52 
  -3  -1 -10    7.77    0.69 
  -3  -1 -10    8.42    0.71 
  -3  -1 -10    8.20    0.68 
  -3  -1  -9   23.38    0.82 
  -3  -1  -9   23.38    0.79 
  -3  -1  -9   22.87    0.79 
  -3  -1  -9   23.53    1.17 
  -3  -1  -9   23.50    1.10 
  -3  -1  -9   24.00    1.17 
  -3  -1  -9   23.41    0.80 
  -3  -1  -8    4.14    0.56 
  -3  -1  -8    5.65    0.74 
  -3  -1  -8    5.17    0.50 
  -3  -1  -8    5.12    0.55 
  -3  -1  -8    4.09    0.50 
  -3  -1  -8    4.37    0.52 
  -3  -1  -8    4.21    0.50 
  -3  -1  -8    5.83    0.70 
  -3  -1  -8    5.04    0.72 
  -3  -1  -8    4.47    0.69 
  -3  -1  -8    5.35    0.70 
  -3  -1  -7  428.53    4.95 
  -3  -1  -7  438.40    5.54 
  -3  -1  -7  429.51    5.82 
  -3  -1  -7  434.12    4.83 
  -3  -1  -7  433.42    4.90 
  -3  -1  -7  418.20    4.83 
  -3  -1  -7  443.53    4.89 
  -3  -1  -7  415.68    4.81 
  -3  -1  -7  430.01    5.86 
  -3  -1  -7  432.14    5.89 
  -3  -1  -7  435.50    5.91 
  -3  -1  -6   38.84    1.09 
  -3  -1  -6   41.72    1.43 
  -3  -1  -6   42.43    1.01 
  -3  -1  -6   41.56    1.06 
  -3  -1  -6   44.12    1.05 
  -3  -1  -6   39.50    1.00 
  -3  -1  -6   40.57    0.94 
  -3  -1  -6   39.39    1.01 
  -3  -1  -6   40.14    1.05 
  -3  -1  -6   39.76    1.22 
  -3  -1  -6   41.53    1.41 
  -3  -1  -6   41.83    1.41 
  -3  -1  -6   41.13    1.42 
  -3  -1  -5    2.52    0.34 
  -3  -1  -5    2.00    0.40 
  -3  -1  -5    2.17    0.46 
  -3  -1  -5    1.89    0.45 
  -3  -1  -5    2.75    0.34 
  -3  -1  -5    2.43    0.33 
  -3  -1  -5    1.88    0.34 
  -3  -1  -5    1.79    0.43 
  -3  -1  -5    2.34    0.45 
  -3  -1  -4   15.53    0.62 
  -3  -1  -4   15.75    0.58 
  -3  -1  -4   16.53    0.56 
  -3  -1  -4   16.28    0.55 
  -3  -1  -4   14.93    0.78 
  -3  -1  -4   16.09    0.79 
  -3  -1  -4   15.43    0.78 
  -3  -1  -3   34.59    1.00 
  -3  -1  -3   38.80    0.86 
  -3  -1  -3   35.69    0.74 
  -3  -1  -3   35.68    0.75 
  -3  -1  -3   38.57    0.80 
  -3  -1  -3   36.83    0.78 
  -3  -1  -3   32.08    1.04 
  -3  -1  -3   32.37    0.71 
  -3  -1  -3   33.74    1.00 
  -3  -1  -3   41.72    1.09 
  -3  -1  -2  183.39    2.09 
  -3  -1  -2  179.73    2.07 
  -3  -1   1   18.40    0.58 
  -3  -1   1   16.17    0.61 
  -3  -1   2  164.36    1.95 
  -3  -1   2  144.34    2.13 
  -3  -1   3  334.93    3.54 
  -3  -1   3  344.37    3.80 
  -3  -1   4  124.39    1.75 
  -3  -1   4  121.55    2.28 
  -3  -1   5   19.89    0.97 
  -3  -1   5   19.34    0.67 
  -3  -1   5   21.30    0.85 
  -3  -1   5   19.60    0.68 
  -3  -1   6    0.09    0.28 
  -3  -1   6    0.03    0.32 
  -3  -1   6    0.02    0.37 
  -3  -1   6   -0.23    0.25 
  -3  -1   6   -0.11    0.39 
  -3  -1   6   -0.09    0.35 
  -3  -1   6   -0.10    0.32 
  -3  -1   6   -0.02    0.23 
  -3  -1   7   20.22    0.78 
  -3  -1   7   19.21    0.91 
  -3  -1   7   20.03    0.71 
  -3  -1   7   20.21    0.69 
  -3  -1   7   19.18    0.97 
  -3  -1   7   21.38    0.68 
  -3  -1   7   21.96    0.81 
  -3  -1   8   73.54    1.31 
  -3  -1   8   76.48    1.73 
  -3  -1   8   70.47    1.34 
  -3  -1   8   73.56    1.26 
  -3  -1   9   43.61    1.63 
  -3  -1   9   68.16    1.18 
  -3  -1  10  132.05    2.03 
  -3  -1  10  144.14    1.78 
  -3   0 -11    2.26    0.28 
  -3   0 -11    2.67    0.29 
  -3   0 -11    1.92    0.30 
  -3   0 -10    0.38    0.33 
  -3   0 -10    0.59    0.32 
  -3   0 -10    0.36    0.34 
  -3   0 -10    0.44    0.32 
  -3   0  -9   30.14    0.90 
  -3   0  -9   29.31    0.91 
  -3   0  -9   30.18    0.90 
  -3   0  -9   30.21    1.23 
  -3   0  -9   31.24    1.00 
  -3   0  -9   28.00    0.81 
  -3   0  -8    6.77    0.65 
  -3   0  -8    6.83    0.60 
  -3   0  -8    7.01    0.78 
  -3   0  -8    5.67    0.59 
  -3   0  -8    6.47    0.55 
  -3   0  -8    6.14    0.52 
  -3   0  -8    6.64    0.61 
  -3   0  -8    6.82    0.56 
  -3   0  -8    6.30    0.56 
  -3   0  -8    4.78    0.56 
  -3   0  -8    6.02    0.70 
  -3   0  -8    5.62    0.68 
  -3   0  -8    5.84    0.62 
  -3   0  -7  520.27    6.34 
  -3   0  -7  525.64    6.09 
  -3   0  -7  557.16    6.78 
  -3   0  -7  531.03    6.89 
  -3   0  -7  550.68    6.20 
  -3   0  -7  566.18    6.01 
  -3   0  -7  586.89    6.13 
  -3   0  -7  577.67    6.05 
  -3   0  -7  542.66    6.00 
  -3   0  -7  574.64    6.04 
  -3   0  -7  543.48    6.79 
  -3   0  -7  549.14    6.84 
  -3   0  -7  519.96    6.25 
  -3   0  -6   11.67    0.64 
  -3   0  -6   12.08    0.68 
  -3   0  -6   13.11    0.62 
  -3   0  -6   13.19    0.68 
  -3   0  -6   12.71    0.63 
  -3   0  -6   12.75    0.64 
  -3   0  -6   12.87    0.64 
  -3   0  -6   13.41    0.83 
  -3   0  -6   12.27    0.85 
  -3   0  -6   11.79    0.78 
  -3   0  -6   12.72    0.80 
  -3   0  -6   11.73    0.69 
  -3   0  -5   14.49    0.65 
  -3   0  -5   13.18    0.60 
  -3   0  -5   13.82    0.61 
  -3   0  -5   13.18    0.60 
  -3   0  -5   12.35    0.56 
  -3   0  -5   12.14    0.63 
  -3   0  -5   12.52    0.71 
  -3   0  -5   13.12    0.72 
  -3   0  -4  202.42    2.86 
  -3   0  -4  199.95    2.83 
  -3   0  -4  202.28    2.48 
  -3   0  -4  201.23    2.49 
  -3   0  -4  201.21    2.54 
  -3   0  -4  208.32    2.59 
  -3   0  -4  197.19    2.60 
  -3   0  -4  211.87    2.58 
  -3   0  -3  384.44    4.08 
  -3   0  -3  384.73    4.08 
  -3   0  -3  382.21    4.58 
  -3   0  -2   22.38    0.78 
  -3   0  -2   21.48    0.75 
  -3   0  -1  499.45    5.33 
  -3   0   1  547.62    5.51 
  -3   0   2   54.42    0.98 
  -3   0   2   52.15    0.84 
  -3   0   2   51.84    0.84 
  -3   0   3  118.45    1.55 
  -3   0   3  121.63    1.71 
  -3   0   4  212.18    2.65 
  -3   0   4  191.60    2.36 
  -3   0   4  212.75    2.57 
  -3   0   4  186.35    2.35 
  -3   0   5    0.09    0.27 
  -3   0   5    0.01    0.25 
  -3   0   5   -0.16    0.25 
  -3   0   5    0.04    0.23 
  -3   0   6   17.43    0.81 
  -3   0   6   18.35    0.67 
  -3   0   6   18.72    0.60 
  -3   0   6   19.69    0.72 
  -3   0   6   17.68    0.67 
  -3   0   6   18.58    0.67 
  -3   0   6   19.16    0.66 
  -3   0   7   46.47    1.31 
  -3   0   7   44.94    1.11 
  -3   0   7   43.76    1.10 
  -3   0   7   44.18    1.06 
  -3   0   7   43.94    1.00 
  -3   0   7   45.90    1.02 
  -3   0   8   -0.18    0.39 
  -3   0   8    0.13    0.34 
  -3   0   8    0.08    0.35 
  -3   0   8   -0.08    0.36 
  -3   0   8   -0.19    0.29 
  -3   0   9  150.75    2.08 
  -3   0   9  149.66    2.08 
  -3   0  10   13.90    0.54 
  -3   0  10   14.06    0.55 
  -3   0  10   12.55    0.45 
  -3   1 -11   11.54    0.43 
  -3   1 -11   11.96    0.44 
  -3   1 -10   32.68    0.83 
  -3   1 -10   32.80    0.84 
  -3   1 -10   30.53    1.10 
  -3   1 -10   31.87    1.12 
  -3   1 -10   33.98    0.85 
  -3   1 -10   35.29    0.86 
  -3   1  -9    3.31    0.46 
  -3   1  -9    2.95    0.44 
  -3   1  -9    3.02    0.57 
  -3   1  -9    3.36    0.56 
  -3   1  -9    3.32    0.45 
  -3   1  -9    3.69    0.43 
  -3   1  -9    3.01    0.43 
  -3   1  -9    3.48    0.44 
  -3   1  -8   50.24    1.25 
  -3   1  -8   49.05    1.24 
  -3   1  -8   48.84    1.13 
  -3   1  -8   48.24    1.62 
  -3   1  -8   53.85    1.26 
  -3   1  -8   48.39    1.23 
  -3   1  -8   53.59    1.26 
  -3   1  -8   49.17    1.27 
  -3   1  -8   51.00    1.66 
  -3   1  -8   47.15    1.39 
  -3   1  -7  132.21    2.24 
  -3   1  -7  143.63    2.25 
  -3   1  -7  130.44    2.07 
  -3   1  -7  144.23    2.87 
  -3   1  -7  124.79    2.33 
  -3   1  -7  151.73    2.28 
  -3   1  -7  135.87    2.20 
  -3   1  -7  148.51    2.27 
  -3   1  -7  142.09    2.79 
  -3   1  -7  142.35    2.57 
  -3   1  -7  124.54    2.47 
  -3   1  -7  124.08    2.47 
  -3   1  -7  142.93    2.85 
  -3   1  -7  136.53    2.48 
  -3   1  -6  178.57    2.92 
  -3   1  -6  179.47    2.91 
  -3   1  -6  187.86    3.21 
  -3   1  -6  193.61    2.98 
  -3   1  -6  193.39    2.69 
  -3   1  -6  173.35    2.66 
  -3   1  -6  183.06    2.62 
  -3   1  -6  172.60    2.52 
  -3   1  -6  200.39    2.76 
  -3   1  -6  209.52    2.75 
  -3   1  -6  207.48    2.74 
  -3   1  -6  180.40    2.62 
  -3   1  -6  178.62    2.85 
  -3   1  -6  191.57    3.31 
  -3   1  -6  191.93    2.96 
  -3   1  -6  196.96    3.33 
  -3   1  -5    7.19    0.68 
  -3   1  -5    6.93    0.66 
  -3   1  -5    7.89    0.59 
  -3   1  -5    6.37    0.50 
  -3   1  -5    6.41    0.47 
  -3   1  -5    7.68    0.55 
  -3   1  -5    7.51    0.52 
  -3   1  -5    6.01    0.49 
  -3   1  -5    7.20    0.51 
  -3   1  -5    6.69    0.66 
  -3   1  -5    6.35    0.55 
  -3   1  -5    6.15    0.51 
  -3   1  -5    6.35    0.51 
  -3   1  -5    6.62    0.63 
  -3   1  -4   14.53    0.62 
  -3   1  -4   14.60    0.60 
  -3   1  -4   16.90    0.65 
  -3   1  -4   16.01    0.64 
  -3   1  -4   13.88    0.62 
  -3   1  -4   16.44    0.66 
  -3   1  -4   15.37    0.79 
  -3   1  -4   14.81    0.61 
  -3   1  -4   14.48    0.61 
  -3   1  -4   15.56    0.80 
  -3   1  -4   15.30    0.67 
  -3   1  -3  132.55    1.78 
  -3   1  -3  131.35    1.77 
  -3   1  -3  120.35    2.05 
  -3   1  -3  129.71    1.82 
  -3   1  -3  113.54    1.60 
  -3   1  -3  113.28    1.58 
  -3   1  -3  136.28    1.84 
  -3   1  -2  277.93    3.39 
  -3   1  -2  272.38    3.44 
  -3   1  -1  698.86    6.85 
  -3   1  -1  699.94    6.85 
  -3   1  -1  699.71    6.91 
  -3   1   0   47.55    1.01 
  -3   1   0   47.87    1.02 
  -3   1   1   44.85    1.08 
  -3   1   1   45.00    1.08 
  -3   1   2   40.13    1.12 
  -3   1   2   42.79    1.15 
  -3   1   3   23.51    0.93 
  -3   1   3   21.73    0.90 
  -3   1   4   93.11    1.31 
  -3   1   4   95.97    1.32 
  -3   1   5   15.87    0.60 
  -3   1   5   15.11    0.54 
  -3   1   5   15.17    0.54 
  -3   1   6   12.48    0.61 
  -3   1   6   11.43    0.52 
  -3   1   6   11.25    0.55 
  -3   1   6    9.74    0.54 
  -3   1   6   10.55    0.54 
  -3   1   7   36.89    0.93 
  -3   1   7   34.23    0.95 
  -3   1   7   35.41    0.98 
  -3   1   7   32.42    1.10 
  -3   1   7   34.33    0.97 
  -3   1   8   79.82    1.59 
  -3   1   8   75.02    1.48 
  -3   1   8   76.52    1.41 
  -3   1   8   76.57    1.44 
  -3   1   8   77.39    1.44 
  -3   1   9    1.32    0.30 
  -3   1   9    1.53    0.34 
  -3   1   9    1.66    0.34 
  -3   1   9    1.55    0.36 
  -3   1  11    0.32    0.20 
  -3   2 -11    2.56    0.26 
  -3   2 -10   14.66    0.52 
  -3   2 -10   14.44    0.58 
  -3   2 -10   13.82    0.56 
  -3   2 -10   13.85    0.56 
  -3   2  -9   24.06    0.82 
  -3   2  -9   23.99    0.81 
  -3   2  -9   24.18    0.82 
  -3   2  -9   23.05    0.80 
  -3   2  -9   22.97    0.72 
  -3   2  -9   22.91    0.98 
  -3   2  -9   21.87    0.96 
  -3   2  -8   32.50    1.15 
  -3   2  -8   38.02    1.35 
  -3   2  -8   40.58    1.12 
  -3   2  -8   43.08    1.14 
  -3   2  -8   43.67    1.14 
  -3   2  -8   39.39    1.01 
  -3   2  -8   40.29    1.15 
  -3   2  -8   38.81    1.36 
  -3   2  -8   39.51    1.28 
  -3   2  -8   36.48    0.92 
  -3   2  -7   16.46    0.90 
  -3   2  -7   18.19    1.00 
  -3   2  -7   19.90    0.83 
  -3   2  -7   19.76    0.83 
  -3   2  -7   19.21    0.84 
  -3   2  -7   17.84    0.74 
  -3   2  -7   18.40    0.87 
  -3   2  -7   18.67    1.01 
  -3   2  -7   17.96    0.95 
  -3   2  -7   18.58    0.73 
  -3   2  -7   17.49    0.69 
  -3   2  -6    1.72    0.54 
  -3   2  -6    1.50    0.46 
  -3   2  -6    1.55    0.49 
  -3   2  -6    1.70    0.43 
  -3   2  -6    1.21    0.35 
  -3   2  -6    1.64    0.45 
  -3   2  -6    1.30    0.43 
  -3   2  -6    1.84    0.43 
  -3   2  -6    1.79    0.46 
  -3   2  -6    1.42    0.40 
  -3   2  -6    1.75    0.37 
  -3   2  -6    1.46    0.47 
  -3   2  -5    4.56    0.47 
  -3   2  -5    4.42    0.49 
  -3   2  -5    4.66    0.49 
  -3   2  -5    3.98    0.55 
  -3   2  -5    4.44    0.55 
  -3   2  -5    4.14    0.48 
  -3   2  -5    4.01    0.44 
  -3   2  -5    4.11    0.55 
  -3   2  -5    4.18    0.54 
  -3   2  -4   54.68    1.19 
  -3   2  -4   51.23    1.21 
  -3   2  -4   54.51    1.18 
  -3   2  -4   53.08    1.03 
  -3   2  -4   50.33    1.35 
  -3   2  -4   53.53    1.38 
  -3   2  -4   51.86    1.14 
  -3   2  -4   53.90    1.38 
  -3   2  -4   50.04    1.33 
  -3   2  -3    9.31    0.48 
  -3   2  -3    8.24    0.54 
  -3   2  -3    9.22    0.49 
  -3   2  -3    8.72    0.51 
  -3   2  -3    8.85    0.43 
  -3   2  -3    8.66    0.56 
  -3   2  -3    9.11    0.51 
  -3   2  -3    9.72    0.57 
  -3   2  -3    7.79    0.53 
  -3   2  -2  106.26    1.56 
  -3   2  -2   94.06    1.41 
  -3   2  -2  106.28    1.58 
  -3   2  -2   97.52    1.42 
  -3   2  -2  101.39    1.44 
  -3   2  -2  103.41    1.45 
  -3   2  -2  105.93    1.55 
  -3   2  -1    3.45    0.32 
  -3   2  -1    4.13    0.37 
  -3   2  -1    4.23    0.37 
  -3   2  -1    3.31    0.31 
  -3   2   0  218.26    2.85 
  -3   2   0  222.56    2.86 
  -3   2   1    2.00    0.39 
  -3   2   1    1.58    0.37 
  -3   2   1    1.41    0.27 
  -3   2   2   60.47    1.43 
  -3   2   2   61.77    1.43 
  -3   2   2   61.85    1.03 
  -3   2   3   30.84    1.08 
  -3   2   3   31.31    1.09 
  -3   2   5    4.48    0.36 
  -3   2   5    4.48    0.46 
  -3   2   6   21.38    0.71 
  -3   2   6   21.37    0.75 
  -3   2   7  153.81    2.08 
  -3   2   7  150.63    2.08 
  -3   2   7  147.63    2.16 
  -3   2   8    3.45    0.38 
  -3   2   8    2.87    0.40 
  -3   2   9    2.62    0.38 
  -3   2   9    5.53    0.49 
  -3   2  10   12.89    0.50 
  -3   2  10   10.00    0.45 
  -3   2  11    0.11    0.17 
  -3   3 -10    0.77    0.27 
  -3   3 -10    0.62    0.27 
  -3   3  -9   30.96    0.88 
  -3   3  -9   29.74    0.87 
  -3   3  -8   18.41    0.89 
  -3   3  -8   21.56    0.86 
  -3   3  -8   22.07    0.81 
  -3   3  -8   20.29    0.69 
  -3   3  -8   20.96    0.85 
  -3   3  -8   21.34    0.97 
  -3   3  -7   85.54    2.06 
  -3   3  -7   83.68    1.89 
  -3   3  -7   86.37    1.57 
  -3   3  -7   88.75    1.50 
  -3   3  -7   91.25    1.71 
  -3   3  -7   78.00    1.47 
  -3   3  -7   92.32    1.77 
  -3   3  -7   77.47    1.46 
  -3   3  -7   72.35    1.95 
  -3   3  -7   84.52    1.90 
  -3   3  -6   20.70    1.04 
  -3   3  -6   20.90    0.95 
  -3   3  -6   19.67    0.75 
  -3   3  -6   20.78    0.80 
  -3   3  -6   19.83    0.80 
  -3   3  -6   21.95    0.86 
  -3   3  -6   19.78    0.76 
  -3   3  -6   19.36    0.76 
  -3   3  -6   20.19    0.94 
  -3   3  -5    1.39    0.39 
  -3   3  -5    1.43    0.47 
  -3   3  -5    1.58    0.39 
  -3   3  -5    1.26    0.37 
  -3   3  -5    1.83    0.45 
  -3   3  -5    1.84    0.44 
  -3   3  -5    0.30    0.46 
  -3   3  -5    1.17    0.42 
  -3   3  -5    1.88    0.41 
  -3   3  -5    1.33    0.38 
  -3   3  -4    1.25    0.36 
  -3   3  -4    1.34    0.35 
  -3   3  -4    0.91    0.43 
  -3   3  -4    1.21    0.43 
  -3   3  -4    1.54    0.35 
  -3   3  -4    1.47    0.37 
  -3   3  -4    1.27    0.45 
  -3   3  -4    0.90    0.35 
  -3   3  -4    1.42    0.44 
  -3   3  -3   99.03    1.62 
  -3   3  -3  101.37    1.63 
  -3   3  -3  102.67    1.63 
  -3   3  -2   75.65    1.32 
  -3   3  -2   73.68    1.29 
  -3   3  -2   74.17    1.31 
  -3   3  -2   71.29    1.38 
  -3   3  -2   70.21    1.36 
  -3   3  -1   69.86    1.26 
  -3   3  -1   65.51    1.21 
  -3   3  -1   63.89    1.17 
  -3   3  -1   66.51    1.21 
  -3   3  -1   74.93    1.46 
  -3   3  -1   77.05    1.49 
  -3   3  -1   67.61    1.25 
  -3   3   0    8.18    0.47 
  -3   3   0   11.79    0.64 
  -3   3   0   11.78    0.63 
  -3   3   0    8.27    0.47 
  -3   3   1    0.38    0.26 
  -3   3   1    0.53    0.35 
  -3   3   1    0.45    0.33 
  -3   3   2   82.70    1.38 
  -3   3   2   86.30    1.87 
  -3   3   2   84.78    1.87 
  -3   3   3   12.52    0.55 
  -3   3   3   13.40    0.81 
  -3   3   3   12.72    0.80 
  -3   3   3   13.00    0.55 
  -3   3   4    4.49    0.43 
  -3   3   4    4.97    0.42 
  -3   3   4    5.33    0.44 
  -3   3   4    5.28    0.65 
  -3   3   4    4.93    0.63 
  -3   3   5   20.05    0.77 
  -3   3   5   18.42    0.72 
  -3   3   6    0.03    0.52 
  -3   3   6   -0.25    0.53 
  -3   3   7    1.13    0.34 
  -3   3   8    0.33    0.36 
  -3   3   8    0.27    0.40 
  -3   3   9    1.62    0.36 
  -3   3   9    1.20    0.38 
  -3   3   9    1.56    0.40 
  -3   3  10    1.70    0.25 
  -3   3  10    1.43    0.31 
  -3   3  10    1.32    0.27 
  -3   4 -10    0.15    0.20 
  -3   4  -9   24.20    0.71 
  -3   4  -9   22.02    0.69 
  -3   4  -8    3.61    0.44 
  -3   4  -8    3.59    0.37 
  -3   4  -8    3.99    0.46 
  -3   4  -7   12.18    0.59 
  -3   4  -7   12.16    0.60 
  -3   4  -7   11.05    0.70 
  -3   4  -7   12.39    0.71 
  -3   4  -7   12.27    0.62 
  -3   4  -6   16.25    0.76 
  -3   4  -6   16.82    0.73 
  -3   4  -6   16.43    0.73 
  -3   4  -6   17.33    0.82 
  -3   4  -6   17.21    0.76 
  -3   4  -6   17.67    0.68 
  -3   4  -5    1.38    0.40 
  -3   4  -5    1.78    0.38 
  -3   4  -5    1.27    0.44 
  -3   4  -5    1.56    0.42 
  -3   4  -5    1.99    0.49 
  -3   4  -5    0.95    0.44 
  -3   4  -5    1.31    0.43 
  -3   4  -4    6.41    0.59 
  -3   4  -4    6.82    0.54 
  -3   4  -4    5.90    0.55 
  -3   4  -4    7.82    0.57 
  -3   4  -4    5.78    0.55 
  -3   4  -4    7.70    0.57 
  -3   4  -3   15.64    0.77 
  -3   4  -3   17.87    0.74 
  -3   4  -3   17.21    0.80 
  -3   4  -3   16.15    0.74 
  -3   4  -3   17.44    0.80 
  -3   4  -2    8.41    0.55 
  -3   4  -2    9.64    0.62 
  -3   4  -2    7.29    0.52 
  -3   4  -2   10.23    0.56 
  -3   4  -2    8.16    0.57 
  -3   4  -2    8.58    0.58 
  -3   4  -2    8.06    0.54 
  -3   4  -1    1.46    0.37 
  -3   4  -1    1.78    0.38 
  -3   4  -1    2.24    0.35 
  -3   4  -1    2.11    0.43 
  -3   4  -1    1.66    0.42 
  -3   4   0    0.24    0.32 
  -3   4   0    0.87    0.38 
  -3   4   0    0.39    0.38 
  -3   4   0    0.12    0.31 
  -3   4   0    0.23    0.50 
  -3   4   0    0.51    0.51 
  -3   4   1   20.31    0.97 
  -3   4   1   19.41    0.95 
  -3   4   1   20.61    0.72 
  -3   4   2   -0.20    0.40 
  -3   4   2   -0.01    0.41 
  -3   4   2    0.19    0.46 
  -3   4   2    0.37    0.29 
  -3   4   2    0.21    0.43 
  -3   4   3    4.25    0.64 
  -3   4   3    4.34    0.63 
  -3   4   3    2.99    0.61 
  -3   4   3    3.57    0.44 
  -3   4   3    4.98    0.55 
  -3   4   4    5.91    0.73 
  -3   4   4    5.60    0.73 
  -3   4   5   28.46    1.18 
  -3   4   6    0.78    0.50 
  -3   4   7    0.53    0.42 
  -3   4   7    0.76    0.48 
  -3   4   8    8.69    0.56 
  -3   4   8    8.20    0.52 
  -3   4   9    0.36    0.37 
  -3   5  -9    2.33    0.27 
  -3   5  -9    1.81    0.23 
  -3   5  -9    1.71    0.23 
  -3   5  -8   13.04    0.53 
  -3   5  -8   13.73    0.54 
  -3   5  -7   44.81    1.13 
  -3   5  -7   46.74    1.03 
  -3   5  -7   43.17    1.04 
  -3   5  -7   43.30    1.12 
  -3   5  -7   47.31    1.03 
  -3   5  -6    0.09    0.33 
  -3   5  -6    0.27    0.34 
  -3   5  -6    0.24    0.34 
  -3   5  -6    0.29    0.35 
  -3   5  -6    0.28    0.40 
  -3   5  -6    0.01    0.33 
  -3   5  -6    0.04    0.36 
  -3   5  -5    3.25    0.47 
  -3   5  -5    3.71    0.49 
  -3   5  -5    3.50    0.50 
  -3   5  -5    3.52    0.40 
  -3   5  -5    2.52    0.48 
  -3   5  -5    3.75    0.49 
  -3   5  -5    2.93    0.46 
  -3   5  -4    9.22    0.62 
  -3   5  -4   11.27    0.66 
  -3   5  -4    8.91    0.63 
  -3   5  -4   11.66    0.73 
  -3   5  -4   10.05    0.59 
  -3   5  -4    8.45    0.63 
  -3   5  -4    9.79    0.63 
  -3   5  -4   11.02    0.66 
  -3   5  -3   44.55    1.28 
  -3   5  -3   63.27    1.48 
  -3   5  -3   44.28    1.23 
  -3   5  -3   46.09    1.14 
  -3   5  -3   45.00    1.27 
  -3   5  -3   58.26    1.33 
  -3   5  -3   57.20    1.30 
  -3   5  -3   40.69    1.26 
  -3   5  -3   57.47    1.32 
  -3   5  -2   37.68    1.12 
  -3   5  -2   49.14    1.24 
  -3   5  -2   35.35    1.02 
  -3   5  -2   44.69    1.19 
  -3   5  -2   31.30    1.11 
  -3   5  -2   46.36    1.15 
  -3   5  -2   44.54    1.19 
  -3   5  -1  340.76    4.40 
  -3   5  -1  375.56    4.38 
  -3   5  -1  345.88    4.41 
  -3   5  -1  361.42    5.02 
  -3   5  -1  371.02    5.06 
  -3   5   0  217.88    2.98 
  -3   5   0  212.37    3.65 
  -3   5   0  210.99    3.61 
  -3   5   1    3.49    0.66 
  -3   5   1    2.98    0.58 
  -3   5   1    2.74    0.57 
  -3   5   2    2.58    0.68 
  -3   5   2    5.76    0.69 
  -3   5   2    3.50    0.64 
  -3   5   2    5.63    0.71 
  -3   5   2    4.60    0.56 
  -3   5   2    4.81    0.50 
  -3   5   3    4.07    0.72 
  -3   5   3    3.33    0.64 
  -3   5   3    2.49    0.62 
  -3   5   3    2.71    0.46 
  -3   5   3    2.73    0.54 
  -3   5   4   38.99    1.68 
  -3   5   4   39.73    1.66 
  -3   5   4   41.98    1.37 
  -3   5   5  738.41    8.27 
  -3   5   6   40.52    1.06 
  -3   5   6   37.06    1.29 
  -3   5   7   56.76    1.25 
  -3   5   7   52.13    1.35 
  -3   6  -8    0.31    0.23 
  -3   6  -7    0.13    0.29 
  -3   6  -7    0.04    0.24 
  -3   6  -7    0.22    0.24 
  -3   6  -7    0.08    0.24 
  -3   6  -6   14.47    0.62 
  -3   6  -6   14.09    0.57 
  -3   6  -6   14.28    0.61 
  -3   6  -6   13.29    0.60 
  -3   6  -5    5.04    0.50 
  -3   6  -5    4.95    0.49 
  -3   6  -5    5.19    0.51 
  -3   6  -5    4.35    0.48 
  -3   6  -4   -0.16    0.38 
  -3   6  -4    0.35    0.40 
  -3   6  -4    0.07    0.40 
  -3   6  -4    0.37    0.30 
  -3   6  -4    0.14    0.36 
  -3   6  -4   -0.01    0.37 
  -3   6  -3   20.51    0.81 
  -3   6  -3   20.83    0.94 
  -3   6  -3   21.62    0.94 
  -3   6  -2   52.39    1.36 
  -3   6  -2   57.06    1.34 
  -3   6  -2   55.57    1.38 
  -3   6  -1   46.79    1.24 
  -3   6   0   18.76    0.90 
  -3   6   0   16.06    1.02 
  -3   6   0   17.88    1.06 
  -3   6   0   19.49    0.84 
  -3   6   1    1.08    0.60 
  -3   6   1    0.89    0.50 
  -3   6   1    0.41    0.68 
  -3   6   2    8.60    0.65 
  -3   6   2    9.79    0.78 
  -3   6   3   11.24    0.71 
  -3   6   3   15.33    0.89 
  -3   6   4    0.96    0.58 
  -3   6   5   29.31    1.06 
  -3   6   5   24.37    0.92 
  -3   6   6    0.83    0.53 
  -3   6   6    1.69    0.53 
  -3   6   7    8.85    0.55 
  -3   6   7    9.68    0.59 
  -3   6   8    1.84    0.31 
  -3   7  -7    5.36    0.29 
  -3   7  -5    2.59    0.35 
  -3   7  -5    3.12    0.34 
  -3   7  -5    2.51    0.34 
  -3   7  -4    2.98    0.41 
  -3   7  -3    2.57    0.38 
  -3   7  -2    7.10    0.53 
  -3   7  -2    8.75    0.59 
  -3   7  -1   19.01    0.72 
  -3   7  -1   19.14    0.84 
  -3   7   0   29.75    0.85 
  -3   7   1    2.71    0.57 
  -3   7   1    3.17    0.71 
  -3   7   2    6.30    0.61 
  -3   7   2    7.30    0.75 
  -3   7   3    3.98    0.56 
  -3   7   3    4.57    0.67 
  -3   7   3    4.59    0.62 
  -3   7   4    6.34    0.67 
  -3   7   5    4.47    0.54 
  -3   7   6   15.74    0.64 
  -3   8  -5   -0.03    0.17 
  -3   8  -4    2.46    0.26 
  -3   8  -3   22.96    0.64 
  -3   8  -2    7.04    0.46 
  -3   8   0    0.85    0.34 
  -3   8   0    0.79    0.37 
  -3   8   1    0.31    0.35 
  -3   8   1    0.17    0.31 
  -3   8   2    0.06    0.30 
  -3   8   3    1.85    0.35 
  -3   8   4    1.36    0.26 
  -2  -9  -3   14.26    0.54 
  -2  -9  -3   14.77    0.55 
  -2  -9  -1    6.32    0.39 
  -2  -9  -1    6.50    0.40 
  -2  -9   0    6.21    0.42 
  -2  -9   0    6.14    0.41 
  -2  -9   0    4.86    0.35 
  -2  -9   0    5.62    0.42 
  -2  -9   0    6.00    0.43 
  -2  -9   1    1.26    0.29 
  -2  -9   1    1.20    0.30 
  -2  -9   1    1.02    0.26 
  -2  -9   2    9.85    0.43 
  -2  -9   3    1.05    0.21 
  -2  -9   4    1.47    0.18 
  -2  -8  -7   16.89    0.40 
  -2  -8  -7    3.04    0.49 
  -2  -8  -6   17.12    0.51 
  -2  -8  -6   13.15    0.56 
  -2  -8  -5    1.57    0.33 
  -2  -8  -5    1.33    0.31 
  -2  -8  -5    1.07    0.37 
  -2  -8  -4   67.70    1.67 
  -2  -8  -4   67.88    1.69 
  -2  -8  -4   67.22    1.67 
  -2  -8  -4   81.91    1.47 
  -2  -8  -4   70.51    1.23 
  -2  -8  -4   77.68    1.43 
  -2  -8  -4   77.47    1.42 
  -2  -8  -3    5.12    0.91 
  -2  -8  -3   21.58    0.68 
  -2  -8  -3   21.38    0.68 
  -2  -8  -3   17.89    0.97 
  -2  -8  -3   19.26    1.01 
  -2  -8  -3    9.38    0.82 
  -2  -8  -3   21.25    0.81 
  -2  -8  -3   22.32    0.82 
  -2  -8  -2    0.07    0.58 
  -2  -8  -2    0.06    0.41 
  -2  -8  -2    0.37    0.43 
  -2  -8  -2    0.36    0.33 
  -2  -8  -2    0.30    0.35 
  -2  -8  -2    0.07    0.35 
  -2  -8  -1    0.17    0.34 
  -2  -8  -1    0.10    0.35 
  -2  -8  -1   -0.04    0.33 
  -2  -8  -1    0.05    0.55 
  -2  -8   0    1.81    0.43 
  -2  -8   0    1.55    0.37 
  -2  -8   0    2.07    0.42 
  -2  -8   0    0.43    0.43 
  -2  -8   0    0.24    0.41 
  -2  -8   0    1.58    0.54 
  -2  -8   0    1.80    0.46 
  -2  -8   0    1.16    0.44 
  -2  -8   0    1.76    0.44 
  -2  -8   0    1.62    0.46 
  -2  -8   1   26.21    0.85 
  -2  -8   1   28.31    0.93 
  -2  -8   1   27.79    0.94 
  -2  -8   1   14.78    0.90 
  -2  -8   1   14.02    0.88 
  -2  -8   1   25.85    1.20 
  -2  -8   1   25.83    1.19 
  -2  -8   1   19.15    0.97 
  -2  -8   1   24.89    1.13 
  -2  -8   1   20.64    0.98 
  -2  -8   1   28.30    1.13 
  -2  -8   2   13.81    0.58 
  -2  -8   2   15.26    0.68 
  -2  -8   2   14.22    0.62 
  -2  -8   2   13.81    0.61 
  -2  -8   2   14.03    0.90 
  -2  -8   2   14.64    0.90 
  -2  -8   2   14.68    0.88 
  -2  -8   2   14.40    0.88 
  -2  -8   2   15.56    0.63 
  -2  -8   3   13.84    0.88 
  -2  -8   3   14.54    0.65 
  -2  -8   3   13.09    0.75 
  -2  -8   3   13.92    0.77 
  -2  -8   3   15.26    0.88 
  -2  -8   4    0.12    0.29 
  -2  -8   4    0.23    0.30 
  -2  -8   4    0.14    0.38 
  -2  -8   4    0.27    0.25 
  -2  -8   4    0.15    0.26 
  -2  -8   5    0.11    0.22 
  -2  -8   5    0.28    0.23 
  -2  -8   6    0.18    0.19 
  -2  -7  -9    3.10    0.21 
  -2  -7  -8    3.02    0.29 
  -2  -7  -8    2.72    0.33 
  -2  -7  -7   21.66    0.75 
  -2  -7  -7   23.76    0.70 
  -2  -7  -7   22.46    0.59 
  -2  -7  -7   22.79    0.73 
  -2  -7  -6   11.83    0.53 
  -2  -7  -6   11.99    0.53 
  -2  -7  -6   11.32    0.64 
  -2  -7  -6   10.11    0.81 
  -2  -7  -6   11.21    0.60 
  -2  -7  -6   12.02    0.62 
  -2  -7  -6   11.86    0.54 
  -2  -7  -5   13.00    0.64 
  -2  -7  -5   13.81    0.64 
  -2  -7  -5   11.16    0.88 
  -2  -7  -5   11.51    0.75 
  -2  -7  -5   12.10    0.78 
  -2  -7  -5   13.28    0.61 
  -2  -7  -5   13.10    0.68 
  -2  -7  -4    2.23    0.49 
  -2  -7  -4    2.82    0.45 
  -2  -7  -4    2.57    0.46 
  -2  -7  -4    2.42    0.75 
  -2  -7  -4    2.13    0.59 
  -2  -7  -4    3.55    0.50 
  -2  -7  -4    3.36    0.54 
  -2  -7  -4    2.75    0.55 
  -2  -7  -4    2.97    0.54 
  -2  -7  -3   33.67    1.35 
  -2  -7  -3   33.36    1.36 
  -2  -7  -3   27.49    0.97 
  -2  -7  -3   33.65    0.94 
  -2  -7  -3   33.19    0.94 
  -2  -7  -3   35.66    1.09 
  -2  -7  -3   35.36    1.08 
  -2  -7  -3   30.34    1.28 
  -2  -7  -3   33.37    1.09 
  -2  -7  -3   32.43    0.96 
  -2  -7  -3   31.22    0.90 
  -2  -7  -3   27.48    1.27 
  -2  -7  -3   31.55    1.47 
  -2  -7  -2    8.97    0.86 
  -2  -7  -2   10.45    0.62 
  -2  -7  -2   10.03    0.62 
  -2  -7  -2    7.99    0.56 
  -2  -7  -2    8.07    0.81 
  -2  -7  -2    7.66    0.80 
  -2  -7  -2   10.65    0.95 
  -2  -7  -2    9.09    0.64 
  -2  -7  -2    8.24    0.74 
  -2  -7  -2    9.64    0.64 
  -2  -7  -2    9.55    0.65 
  -2  -7  -2    9.73    0.82 
  -2  -7  -2   10.70    0.85 
  -2  -7  -1    4.00    0.48 
  -2  -7  -1    2.85    0.53 
  -2  -7  -1    2.01    0.49 
  -2  -7  -1    3.26    0.41 
  -2  -7  -1    1.93    0.48 
  -2  -7  -1    2.11    0.62 
  -2  -7  -1    3.11    0.64 
  -2  -7  -1    2.35    0.50 
  -2  -7  -1    2.89    0.54 
  -2  -7  -1    3.04    0.60 
  -2  -7  -1    3.71    0.70 
  -2  -7  -1    3.33    0.54 
  -2  -7   0    0.08    0.42 
  -2  -7   0    0.09    0.34 
  -2  -7   0    0.06    0.44 
  -2  -7   0    0.06    0.40 
  -2  -7   0    0.01    0.51 
  -2  -7   0    0.36    0.50 
  -2  -7   0   -0.38    0.54 
  -2  -7   0   -0.01    0.45 
  -2  -7   0   -0.10    0.62 
  -2  -7   0    0.11    0.35 
  -2  -7   0   -0.04    0.29 
  -2  -7   1   70.35    1.48 
  -2  -7   1   65.60    1.35 
  -2  -7   1   70.89    1.49 
  -2  -7   1   73.69    1.56 
  -2  -7   1   78.05    1.61 
  -2  -7   1   67.15    1.96 
  -2  -7   1   64.50    1.83 
  -2  -7   1   60.03    1.78 
  -2  -7   1   61.20    1.77 
  -2  -7   1   71.90    2.04 
  -2  -7   1   72.36    2.02 
  -2  -7   1   69.64    1.93 
  -2  -7   2    0.37    0.36 
  -2  -7   2    0.65    0.48 
  -2  -7   2    0.13    0.37 
  -2  -7   2    0.39    0.38 
  -2  -7   2    0.62    0.38 
  -2  -7   2    0.43    0.47 
  -2  -7   2    0.25    0.53 
  -2  -7   2   -0.01    0.52 
  -2  -7   2    0.71    0.52 
  -2  -7   2    0.58    0.39 
  -2  -7   2    0.49    0.47 
  -2  -7   2    0.61    0.45 
  -2  -7   3   15.26    0.73 
  -2  -7   3   15.00    0.99 
  -2  -7   3   11.02    0.83 
  -2  -7   3   14.34    0.71 
  -2  -7   3   11.36    0.76 
  -2  -7   3   11.40    0.75 
  -2  -7   3   11.89    0.58 
  -2  -7   3   12.03    0.59 
  -2  -7   3   15.25    0.97 
  -2  -7   3   13.22    0.88 
  -2  -7   3   10.80    0.83 
  -2  -7   3   13.54    0.62 
  -2  -7   3   13.82    0.87 
  -2  -7   3   10.87    0.72 
  -2  -7   3   13.94    0.87 
  -2  -7   4    3.13    0.57 
  -2  -7   4    3.12    0.57 
  -2  -7   4    7.54    0.68 
  -2  -7   4    8.89    0.57 
  -2  -7   4    6.84    0.58 
  -2  -7   4    7.61    0.69 
  -2  -7   5    5.13    0.47 
  -2  -7   5    5.11    0.43 
  -2  -7   5    5.23    0.42 
  -2  -7   5    4.45    0.39 
  -2  -7   5    4.17    0.59 
  -2  -7   5    5.64    0.47 
  -2  -7   5    4.31    0.49 
  -2  -7   5    4.85    0.41 
  -2  -7   6    8.45    0.45 
  -2  -7   6    8.57    0.66 
  -2  -7   6    8.19    0.43 
  -2  -7   6    8.93    0.48 
  -2  -7   7    0.94    0.23 
  -2  -7   7    1.23    0.23 
  -2  -7   8    0.61    0.17 
  -2  -6  -9    2.91    0.36 
  -2  -6  -9    4.25    0.32 
  -2  -6  -8    5.94    0.42 
  -2  -6  -8    6.09    0.44 
  -2  -6  -8    5.72    0.48 
  -2  -6  -7    0.57    0.38 
  -2  -6  -7    0.63    0.41 
  -2  -6  -7    0.49    0.34 
  -2  -6  -6    9.54    0.70 
  -2  -6  -6   12.30    0.59 
  -2  -6  -6   11.73    0.58 
  -2  -6  -6   11.21    0.87 
  -2  -6  -6   11.74    0.59 
  -2  -6  -6   12.62    0.73 
  -2  -6  -6   11.58    0.66 
  -2  -6  -5    3.31    0.54 
  -2  -6  -5    3.62    0.54 
  -2  -6  -5    3.35    0.50 
  -2  -6  -5    2.40    0.48 
  -2  -6  -5    3.61    0.83 
  -2  -6  -5    3.64    0.51 
  -2  -6  -5    3.75    0.46 
  -2  -6  -5    4.30    0.47 
  -2  -6  -5    4.14    0.89 
  -2  -6  -5    3.82    0.64 
  -2  -6  -5    2.56    0.50 
  -2  -6  -5    3.97    0.49 
  -2  -6  -5    4.11    0.60 
  -2  -6  -4  108.25    1.82 
  -2  -6  -4  103.38    1.68 
  -2  -6  -4  107.14    2.37 
  -2  -6  -4  103.22    2.54 
  -2  -6  -4  118.61    2.82 
  -2  -6  -4  100.32    1.93 
  -2  -6  -4  107.85    1.68 
  -2  -6  -4  109.04    1.70 
  -2  -6  -4  115.06    1.93 
  -2  -6  -4  116.34    1.95 
  -2  -6  -4  115.00    2.37 
  -2  -6  -4  116.22    2.40 
  -2  -6  -3    4.39    0.59 
  -2  -6  -3    4.42    0.59 
  -2  -6  -3    4.45    0.50 
  -2  -6  -3    4.06    0.72 
  -2  -6  -3    4.47    0.44 
  -2  -6  -3    4.07    0.43 
  -2  -6  -3    3.93    0.48 
  -2  -6  -3    2.15    0.49 
  -2  -6  -3    1.57    0.49 
  -2  -6  -3    4.35    0.86 
  -2  -6  -3    3.95    0.78 
  -2  -6  -3    3.66    0.76 
  -2  -6  -3    4.38    0.61 
  -2  -6  -3    3.82    0.49 
  -2  -6  -3    3.87    0.57 
  -2  -6  -3    3.20    0.63 
  -2  -6  -2    0.23    0.44 
  -2  -6  -2    0.02    0.48 
  -2  -6  -2    0.32    0.37 
  -2  -6  -2    0.18    0.41 
  -2  -6  -2    0.13    0.68 
  -2  -6  -2    0.18    0.61 
  -2  -6  -2    0.37    0.60 
  -2  -6  -2    0.67    0.41 
  -2  -6  -2    0.90    0.42 
  -2  -6  -2    0.52    0.37 
  -2  -6  -2    0.70    0.36 
  -2  -6  -2    0.46    0.33 
  -2  -6  -2    0.50    0.34 
  -2  -6  -2   -0.01    0.37 
  -2  -6  -2    0.32    0.53 
  -2  -6  -2    0.30    0.48 
  -2  -6  -1    0.02    0.34 
  -2  -6  -1    0.11    0.36 
  -2  -6  -1    0.37    0.33 
  -2  -6  -1    0.36    0.35 
  -2  -6  -1    0.34    0.58 
  -2  -6  -1   -0.04    0.57 
  -2  -6  -1   -0.05    0.38 
  -2  -6  -1    0.22    0.45 
  -2  -6  -1   -0.17    0.45 
  -2  -6  -1    0.14    0.67 
  -2  -6  -1    0.17    0.46 
  -2  -6   0    4.07    0.52 
  -2  -6   0    5.36    0.43 
  -2  -6   0    5.24    0.47 
  -2  -6   0    5.24    0.60 
  -2  -6   0    5.27    0.49 
  -2  -6   0    5.52    0.47 
  -2  -6   0    5.74    0.49 
  -2  -6   0    5.65    0.52 
  -2  -6   0    5.73    0.54 
  -2  -6   0    6.25    0.72 
  -2  -6   0    5.67    0.72 
  -2  -6   0    6.09    0.61 
  -2  -6   0    4.95    0.58 
  -2  -6   0    4.80    0.68 
  -2  -6   0    4.88    0.53 
  -2  -6   1   20.13    0.77 
  -2  -6   1   20.80    1.04 
  -2  -6   1   21.22    0.78 
  -2  -6   1   22.37    0.83 
  -2  -6   1   22.94    0.86 
  -2  -6   1   21.68    1.07 
  -2  -6   1   20.43    1.05 
  -2  -6   1   23.17    1.09 
  -2  -6   1   21.45    1.03 
  -2  -6   1   21.38    1.07 
  -2  -6   1   21.58    1.08 
  -2  -6   1   20.28    0.86 
  -2  -6   2   13.85    0.87 
  -2  -6   2   12.79    0.75 
  -2  -6   2   14.15    0.89 
  -2  -6   2   14.24    0.68 
  -2  -6   2   14.13    0.91 
  -2  -6   2   13.53    0.66 
  -2  -6   2   14.43    0.68 
  -2  -6   2   13.47    0.87 
  -2  -6   2   13.06    0.87 
  -2  -6   2   14.18    0.90 
  -2  -6   2   13.62    0.90 
  -2  -6   2   14.33    0.75 
  -2  -6   3   -0.37    0.41 
  -2  -6   3    0.08    0.36 
  -2  -6   3    0.20    0.39 
  -2  -6   3    0.15    0.38 
  -2  -6   3    0.84    0.41 
  -2  -6   3    0.38    0.29 
  -2  -6   3    0.08    0.47 
  -2  -6   3    0.63    0.49 
  -2  -6   3    0.49    0.52 
  -2  -6   3    0.28    0.47 
  -2  -6   3    0.26    0.41 
  -2  -6   3    0.30    0.40 
  -2  -6   3    0.46    0.43 
  -2  -6   3    0.56    0.45 
  -2  -6   4    4.59    0.56 
  -2  -6   4    4.64    0.49 
  -2  -6   4    4.49    0.48 
  -2  -6   4    4.26    0.45 
  -2  -6   4    2.28    0.47 
  -2  -6   4    4.15    0.53 
  -2  -6   4    3.98    0.53 
  -2  -6   4    4.06    0.52 
  -2  -6   4    3.76    0.45 
  -2  -6   5    7.60    0.75 
  -2  -6   5    7.06    0.51 
  -2  -6   5    7.54    0.55 
  -2  -6   5    6.73    0.49 
  -2  -6   5    7.53    0.55 
  -2  -6   5    6.78    0.62 
  -2  -6   5    6.73    0.48 
  -2  -6   6    0.18    0.40 
  -2  -6   6   -0.01    0.32 
  -2  -6   6    0.21    0.30 
  -2  -6   6    0.20    0.42 
  -2  -6   6    0.12    0.36 
  -2  -6   6    0.18    0.36 
  -2  -6   6    0.08    0.37 
  -2  -6   6   -0.01    0.29 
  -2  -6   6   -0.07    0.29 
  -2  -6   7    1.06    0.41 
  -2  -6   7    1.03    0.30 
  -2  -6   7    1.13    0.30 
  -2  -6   7    1.23    0.31 
  -2  -6   7    0.88    0.35 
  -2  -6   7    0.08    0.30 
  -2  -6   8   -0.18    0.25 
  -2  -6   8    0.23    0.24 
  -2  -6   8    0.14    0.23 
  -2  -6   9    7.13    0.31 
  -2  -5 -10    2.86    0.32 
  -2  -5 -10    3.20    0.30 
  -2  -5 -10    3.92    0.40 
  -2  -5  -9   20.54    0.74 
  -2  -5  -9   20.28    0.72 
  -2  -5  -9   21.61    0.67 
  -2  -5  -9   21.10    0.98 
  -2  -5  -8   16.31    0.71 
  -2  -5  -8   17.21    0.96 
  -2  -5  -8   16.40    0.69 
  -2  -5  -8   17.57    0.74 
  -2  -5  -8   15.52    0.71 
  -2  -5  -7    0.32    0.43 
  -2  -5  -7   -0.13    0.33 
  -2  -5  -7    0.28    0.38 
  -2  -5  -6   91.86    1.69 
  -2  -5  -6   99.99    2.31 
  -2  -5  -6   98.67    1.63 
  -2  -5  -6  100.78    1.65 
  -2  -5  -6  100.09    2.06 
  -2  -5  -6   96.51    2.05 
  -2  -5  -6  109.08    2.74 
  -2  -5  -6  107.25    1.76 
  -2  -5  -6  101.02    1.83 
  -2  -5  -5   14.33    0.89 
  -2  -5  -5   16.93    1.53 
  -2  -5  -5   13.44    0.65 
  -2  -5  -5   13.98    0.67 
  -2  -5  -5   11.31    0.58 
  -2  -5  -5   14.13    0.70 
  -2  -5  -5   14.65    0.64 
  -2  -5  -5   12.80    0.61 
  -2  -5  -5   15.78    1.21 
  -2  -5  -5    9.97    0.71 
  -2  -5  -5   12.46    0.87 
  -2  -5  -5   14.21    0.81 
  -2  -5  -5   14.48    0.81 
  -2  -5  -4   61.91    1.63 
  -2  -5  -4   61.36    1.89 
  -2  -5  -4   60.69    1.13 
  -2  -5  -4   61.59    1.32 
  -2  -5  -4   61.71    1.29 
  -2  -5  -4   60.51    1.29 
  -2  -5  -4   62.95    1.58 
  -2  -5  -4   64.11    1.60 
  -2  -5  -3    6.89    0.47 
  -2  -5  -3    6.74    0.54 
  -2  -5  -3    5.53    0.46 
  -2  -5  -3    7.19    0.43 
  -2  -5  -3    7.12    0.47 
  -2  -5  -3    7.54    0.49 
  -2  -5  -3    7.80    0.62 
  -2  -5  -3    7.78    0.60 
  -2  -5  -3    7.45    0.98 
  -2  -5  -3    6.61    0.74 
  -2  -5  -3    8.10    0.87 
  -2  -5  -3    7.67    0.86 
  -2  -5  -3    6.84    0.60 
  -2  -5  -3    7.36    0.66 
  -2  -5  -2   18.51    0.69 
  -2  -5  -2   17.88    0.76 
  -2  -5  -2   19.26    0.64 
  -2  -5  -2   18.39    0.63 
  -2  -5  -2   14.79    0.62 
  -2  -5  -2   18.14    0.66 
  -2  -5  -2   19.45    0.70 
  -2  -5  -2   22.53    1.09 
  -2  -5  -2   22.81    1.11 
  -2  -5  -2   16.29    0.89 
  -2  -5  -2   20.26    1.11 
  -2  -5  -2   18.71    0.91 
  -2  -5  -2   18.71    0.86 
  -2  -5  -2   19.31    0.86 
  -2  -5  -2   18.27    0.80 
  -2  -5  -1    1.25    0.30 
  -2  -5  -1    1.16    0.34 
  -2  -5  -1    0.80    0.45 
  -2  -5  -1    1.22    0.36 
  -2  -5  -1    1.20    0.58 
  -2  -5  -1    0.80    0.53 
  -2  -5  -1    1.20    0.55 
  -2  -5  -1    1.19    0.29 
  -2  -5  -1    1.04    0.30 
  -2  -5  -1    0.91    0.38 
  -2  -5   0   18.80    0.84 
  -2  -5   0   18.79    0.66 
  -2  -5   0   19.28    0.66 
  -2  -5   0   17.64    0.61 
  -2  -5   0   18.75    0.69 
  -2  -5   0   19.17    0.71 
  -2  -5   0   19.45    0.63 
  -2  -5   0   17.85    0.64 
  -2  -5   0   22.01    1.00 
  -2  -5   0   23.27    1.02 
  -2  -5   0   17.17    0.78 
  -2  -5   0   19.39    0.77 
  -2  -5   1    1.57    0.41 
  -2  -5   1    1.07    0.37 
  -2  -5   1    1.56    0.40 
  -2  -5   1    1.33    0.39 
  -2  -5   1    1.31    0.31 
  -2  -5   1    1.51    0.36 
  -2  -5   1    1.19    0.35 
  -2  -5   1    3.03    0.34 
  -2  -5   1    1.07    0.49 
  -2  -5   1    1.44    0.49 
  -2  -5   1    1.28    0.50 
  -2  -5   1    1.39    0.41 
  -2  -5   1    0.98    0.35 
  -2  -5   2   77.14    1.77 
  -2  -5   2   78.25    1.65 
  -2  -5   2   76.05    1.75 
  -2  -5   2   79.17    1.44 
  -2  -5   2   77.66    1.81 
  -2  -5   2   80.98    1.48 
  -2  -5   2   81.15    1.49 
  -2  -5   2   77.66    1.38 
  -2  -5   2   74.15    1.39 
  -2  -5   2   83.70    1.84 
  -2  -5   2   83.80    1.86 
  -2  -5   2   82.16    1.71 
  -2  -5   2   77.22    1.76 
  -2  -5   3   50.88    1.11 
  -2  -5   3   56.20    1.54 
  -2  -5   3   53.27    1.45 
  -2  -5   3   55.76    1.23 
  -2  -5   3   56.61    1.54 
  -2  -5   3   55.38    1.21 
  -2  -5   3   56.79    1.22 
  -2  -5   3   54.50    1.19 
  -2  -5   3   53.98    1.45 
  -2  -5   3   56.24    1.42 
  -2  -5   3   52.36    1.42 
  -2  -5   3   59.12    1.54 
  -2  -5   3   47.84    1.07 
  -2  -5   4    6.37    0.66 
  -2  -5   4    6.11    0.51 
  -2  -5   4    6.69    0.50 
  -2  -5   4    6.27    0.49 
  -2  -5   4    5.03    0.46 
  -2  -5   4    5.76    0.53 
  -2  -5   4    6.65    0.61 
  -2  -5   4    5.67    0.64 
  -2  -5   4    5.36    0.65 
  -2  -5   4    6.01    0.51 
  -2  -5   4    5.36    0.46 
  -2  -5   4    6.90    0.64 
  -2  -5   5    5.46    0.45 
  -2  -5   5    5.28    0.59 
  -2  -5   5    4.95    0.61 
  -2  -5   5    4.76    0.48 
  -2  -5   5    5.15    0.46 
  -2  -5   5    5.73    0.49 
  -2  -5   5    4.25    0.47 
  -2  -5   5    5.33    0.66 
  -2  -5   5    5.25    0.60 
  -2  -5   5    5.83    0.51 
  -2  -5   6    0.01    0.32 
  -2  -5   6    0.26    0.30 
  -2  -5   6    0.01    0.31 
  -2  -5   6   -0.26    0.42 
  -2  -5   6    0.06    0.33 
  -2  -5   6   -0.09    0.32 
  -2  -5   6    0.14    0.32 
  -2  -5   6    0.37    0.40 
  -2  -5   6    0.13    0.38 
  -2  -5   6   -0.15    0.40 
  -2  -5   6   -0.22    0.43 
  -2  -5   6    0.30    0.41 
  -2  -5   6    0.12    0.39 
  -2  -5   7    2.70    0.49 
  -2  -5   7    3.42    0.38 
  -2  -5   7    3.94    0.44 
  -2  -5   7    3.72    0.43 
  -2  -5   7    4.13    0.43 
  -2  -5   7    3.57    0.37 
  -2  -5   7    3.17    0.57 
  -2  -5   7    3.22    0.52 
  -2  -5   7    3.95    0.53 
  -2  -5   8    5.18    0.56 
  -2  -5   8    5.95    0.46 
  -2  -5   8    4.98    0.45 
  -2  -5   8    5.21    0.42 
  -2  -4 -10    1.12    0.43 
  -2  -4 -10    1.50    0.37 
  -2  -4 -10    1.41    0.33 
  -2  -4  -9    3.10    0.44 
  -2  -4  -9    3.60    0.40 
  -2  -4  -9    3.28    0.59 
  -2  -4  -9    3.51    0.40 
  -2  -4  -8   28.71    0.87 
  -2  -4  -8   22.01    0.92 
  -2  -4  -8   25.18    0.91 
  -2  -4  -8   22.92    0.79 
  -2  -4  -8   21.34    0.77 
  -2  -4  -8   26.89    1.15 
  -2  -4  -8   26.43    0.84 
  -2  -4  -8   26.16    1.47 
  -2  -4  -7  103.98    1.73 
  -2  -4  -7  109.60    1.76 
  -2  -4  -7   99.43    1.72 
  -2  -4  -7   99.57    1.74 
  -2  -4  -7   99.48    1.81 
  -2  -4  -7   83.37    1.57 
  -2  -4  -7   94.76    2.14 
  -2  -4  -7   80.03    1.93 
  -2  -4  -7  110.50    2.95 
  -2  -4  -7   92.46    2.20 
  -2  -4  -6    2.58    0.42 
  -2  -4  -6    1.35    1.76 
  -2  -4  -6    2.36    0.45 
  -2  -4  -6    3.29    0.53 
  -2  -4  -6    3.09    0.37 
  -2  -4  -6    2.78    0.36 
  -2  -4  -6    2.87    0.46 
  -2  -4  -6    2.95    0.40 
  -2  -4  -6    1.79    0.40 
  -2  -4  -6    3.29    0.47 
  -2  -4  -6    2.94    0.47 
  -2  -4  -6    2.82    0.41 
  -2  -4  -5   58.86    1.14 
  -2  -4  -5   56.55    1.16 
  -2  -4  -5   53.51    1.08 
  -2  -4  -5   58.69    1.53 
  -2  -4  -5   56.56    1.10 
  -2  -4  -5   56.20    1.09 
  -2  -4  -5   55.46    1.39 
  -2  -4  -5   54.19    1.38 
  -2  -4  -5   57.55    1.32 
  -2  -4  -4  105.45    1.92 
  -2  -4  -4  106.75    1.94 
  -2  -4  -4  115.59    2.46 
  -2  -4  -4  110.42    1.69 
  -2  -4  -4  106.80    1.57 
  -2  -4  -4  106.34    1.58 
  -2  -4  -4  111.07    2.00 
  -2  -4  -4   79.06    2.73 
  -2  -4  -4   79.20    1.83 
  -2  -4  -4  104.04    1.55 
  -2  -4  -3   19.30    0.66 
  -2  -4  -3   19.35    0.60 
  -2  -4  -3   20.17    0.62 
  -2  -4  -3   17.82    0.75 
  -2  -4  -3   18.81    0.77 
  -2  -4  -3   29.62    1.39 
  -2  -4  -3   26.33    1.35 
  -2  -4  -3   22.18    1.44 
  -2  -4  -3   18.35    0.96 
  -2  -4  -3   20.53    0.81 
  -2  -4  -2  125.70    1.77 
  -2  -4  -2  119.71    1.93 
  -2  -4  -2  117.12    1.63 
  -2  -4  -2  119.32    1.65 
  -2  -4  -2  112.31    1.69 
  -2  -4  -2  121.92    1.73 
  -2  -4  -2  125.61    1.75 
  -2  -4  -2  189.54    2.75 
  -2  -4  -2  153.00    2.65 
  -2  -4  -2  112.81    2.16 
  -2  -4  -2  169.42    2.52 
  -2  -4  -2  126.43    2.15 
  -2  -4  -2  125.07    2.05 
  -2  -4  -2  123.30    2.03 
  -2  -4  -2  126.19    1.98 
  -2  -4  -1   95.80    1.66 
  -2  -4  -1   93.97    1.38 
  -2  -4  -1   93.28    1.38 
  -2  -4  -1   92.49    1.73 
  -2  -4  -1   86.50    1.74 
  -2  -4  -1  102.32    1.99 
  -2  -4  -1  127.98    2.11 
  -2  -4  -1  126.14    2.10 
  -2  -4  -1   94.61    1.61 
  -2  -4  -1   87.27    1.56 
  -2  -4  -1   97.68    1.44 
  -2  -4   0  198.63    2.36 
  -2  -4   0  190.68    2.36 
  -2  -4   0  211.22    2.79 
  -2  -4   0  190.14    2.31 
  -2  -4   0  190.93    2.43 
  -2  -4   0  201.29    2.48 
  -2  -4   0  209.35    2.61 
  -2  -4   0  205.92    2.82 
  -2  -4   0  177.07    2.70 
  -2  -4   0  239.96    3.09 
  -2  -4   0  246.33    3.12 
  -2  -4   0  196.60    2.67 
  -2  -4   0  201.04    2.61 
  -2  -4   1   26.43    0.89 
  -2  -4   1   22.46    0.63 
  -2  -4   1   23.43    0.68 
  -2  -4   1   24.23    0.71 
  -2  -4   1   24.44    0.85 
  -2  -4   1   24.57    0.85 
  -2  -4   1   24.54    0.79 
  -2  -4   1   29.22    0.99 
  -2  -4   1   27.24    0.96 
  -2  -4   1   24.97    0.66 
  -2  -4   1   23.36    0.81 
  -2  -4   2 2188.35   18.88 
  -2  -4   2 1827.18   18.66 
  -2  -4   2 2147.53   18.82 
  -2  -4   2 1921.18   18.08 
  -2  -4   2 1914.09   18.10 
  -2  -4   2 1921.10   18.06 
  -2  -4   2 1914.42   18.04 
  -2  -4   2 1844.92   18.53 
  -2  -4   2 2033.41   18.50 
  -2  -4   2 1892.67   18.53 
  -2  -4   2 1972.64   18.64 
  -2  -4   2 1949.26   18.10 
  -2  -4   3  102.33    2.01 
  -2  -4   3  111.65    2.05 
  -2  -4   3   95.70    1.57 
  -2  -4   3   99.22    1.58 
  -2  -4   3   99.11    1.57 
  -2  -4   3  100.05    1.61 
  -2  -4   3  100.86    1.63 
  -2  -4   3  105.92    1.90 
  -2  -4   3  113.45    2.06 
  -2  -4   3  101.83    1.94 
  -2  -4   3  100.25    2.05 
  -2  -4   3  109.73    2.03 
  -2  -4   4   88.46    1.90 
  -2  -4   4   92.59    1.84 
  -2  -4   4   85.35    1.87 
  -2  -4   4   89.06    1.54 
  -2  -4   4   90.21    1.55 
  -2  -4   4   88.93    1.96 
  -2  -4   4   90.05    1.89 
  -2  -4   5   21.71    0.72 
  -2  -4   5   23.17    0.70 
  -2  -4   5   21.04    0.70 
  -2  -4   5   21.45    0.78 
  -2  -4   5   17.62    0.93 
  -2  -4   5   21.71    0.95 
  -2  -4   5   20.88    0.96 
  -2  -4   5   24.45    0.83 
  -2  -4   5   23.32    0.80 
  -2  -4   5   24.51    1.05 
  -2  -4   5   22.25    0.95 
  -2  -4   5   21.16    0.96 
  -2  -4   5   23.94    1.08 
  -2  -4   5   16.62    1.13 
  -2  -4   5   24.08    0.98 
  -2  -4   6   14.10    1.06 
  -2  -4   6   12.89    0.91 
  -2  -4   6   18.64    0.91 
  -2  -4   6   16.51    0.62 
  -2  -4   6   16.64    0.70 
  -2  -4   6   18.47    0.68 
  -2  -4   6   17.85    0.74 
  -2  -4   6   16.37    0.61 
  -2  -4   6   16.80    0.66 
  -2  -4   6   18.62    0.76 
  -2  -4   6   18.07    0.77 
  -2  -4   6   19.00    0.99 
  -2  -4   6   14.58    1.05 
  -2  -4   6   19.60    0.96 
  -2  -4   6   18.73    0.93 
  -2  -4   6   16.40    0.90 
  -2  -4   7   24.55    0.74 
  -2  -4   7   24.06    0.74 
  -2  -4   7   27.91    0.94 
  -2  -4   7   22.84    0.84 
  -2  -4   7   21.87    0.70 
  -2  -4   7   25.33    1.23 
  -2  -4   7   21.73    0.98 
  -2  -4   7   29.41    1.19 
  -2  -4   7   21.61    0.70 
  -2  -4   8    1.64    0.39 
  -2  -4   8    1.77    0.34 
  -2  -4   8    1.52    0.48 
  -2  -4   8    1.58    0.30 
  -2  -4   8    1.71    0.32 
  -2  -4   8    1.60    0.33 
  -2  -4   8    2.04    0.33 
  -2  -4   9   40.02    1.04 
  -2  -4   9   42.84    1.06 
  -2  -4   9   34.21    0.78 
  -2  -4   9   35.37    1.37 
  -2  -4   9   42.94    0.89 
  -2  -4   9   32.54    0.76 
  -2  -4  10   24.71    0.69 
  -2  -4  10   27.82    0.75 
  -2  -4  11   10.21    0.29 
  -2  -3 -11    0.28    0.31 
  -2  -3 -11   -0.01    0.26 
  -2  -3 -10   20.66    0.71 
  -2  -3 -10   21.42    0.96 
  -2  -3 -10   22.50    0.74 
  -2  -3  -9   30.01    0.97 
  -2  -3  -9   28.46    0.84 
  -2  -3  -9   28.25    0.88 
  -2  -3  -9   24.38    0.83 
  -2  -3  -9   24.25    0.84 
  -2  -3  -9   28.51    1.16 
  -2  -3  -9   28.52    1.18 
  -2  -3  -9   30.21    1.20 
  -2  -3  -8   36.46    1.69 
  -2  -3  -8   37.55    1.54 
  -2  -3  -8   35.70    1.52 
  -2  -3  -8   38.50    1.13 
  -2  -3  -8   35.81    0.97 
  -2  -3  -8   35.97    1.06 
  -2  -3  -8   30.73    0.98 
  -2  -3  -8   31.97    1.04 
  -2  -3  -8   30.67    0.98 
  -2  -3  -8   38.46    1.34 
  -2  -3  -8   30.18    1.18 
  -2  -3  -8   37.15    1.39 
  -2  -3  -8   36.99    1.40 
  -2  -3  -8   24.93    1.07 
  -2  -3  -7    7.38    0.77 
  -2  -3  -7    7.04    1.12 
  -2  -3  -7    7.16    0.76 
  -2  -3  -7    9.30    0.63 
  -2  -3  -7    7.10    0.51 
  -2  -3  -7    6.51    0.56 
  -2  -3  -7    6.18    0.52 
  -2  -3  -7    7.26    0.53 
  -2  -3  -7    5.65    0.53 
  -2  -3  -7    7.13    0.69 
  -2  -3  -7    7.00    0.63 
  -2  -3  -7    6.35    0.58 
  -2  -3  -7    7.39    0.74 
  -2  -3  -7    5.50    0.57 
  -2  -3  -7    9.25    0.75 
  -2  -3  -6   53.50    1.60 
  -2  -3  -6   53.90    1.61 
  -2  -3  -6   57.63    2.04 
  -2  -3  -6   53.62    1.19 
  -2  -3  -6   50.71    1.10 
  -2  -3  -6   54.30    1.12 
  -2  -3  -6   50.76    1.06 
  -2  -3  -6   51.23    1.13 
  -2  -3  -6   42.90    1.13 
  -2  -3  -6   58.03    1.52 
  -2  -3  -6   41.29    1.26 
  -2  -3  -6   53.89    1.42 
  -2  -3  -6   55.10    1.49 
  -2  -3  -5    1.21    0.37 
  -2  -3  -5    0.63    0.37 
  -2  -3  -5    0.92    0.26 
  -2  -3  -5    0.87    0.25 
  -2  -3  -5    0.81    0.39 
  -2  -3  -5    0.46    0.37 
  -2  -3  -5    1.19    0.79 
  -2  -3  -5    1.42    1.84 
  -2  -3  -5    1.00    0.27 
  -2  -3  -5    1.04    0.34 
  -2  -3  -5    0.27    0.28 
  -2  -3  -5    0.77    0.35 
  -2  -3  -4  130.87    2.04 
  -2  -3  -4  129.67    2.02 
  -2  -3  -4  130.47    1.72 
  -2  -3  -4  130.27    1.77 
  -2  -3  -4  130.17    1.68 
  -2  -3  -4  144.98    1.85 
  -2  -3  -4  124.96    1.69 
  -2  -3  -4  126.68    1.70 
  -2  -3  -4  121.41    1.92 
  -2  -3  -4  142.36    2.20 
  -2  -3  -4  135.67    2.09 
  -2  -3  -3  144.70    1.89 
  -2  -3  -3  145.00    1.89 
  -2  -3  -3  157.37    2.25 
  -2  -3  -3  136.09    2.76 
  -2  -3  -3  162.48    1.97 
  -2  -3  -3  148.93    2.19 
  -2  -3  -3  148.44    2.17 
  -2  -3  -2   26.88    0.78 
  -2  -3  -2   27.30    0.77 
  -2  -3  -2   26.75    0.64 
  -2  -3  -2   26.57    0.63 
  -2  -3  -2   29.57    0.97 
  -2  -3  -2   27.55    0.96 
  -2  -3  -2   31.29    0.97 
  -2  -3  -2   27.92    0.75 
  -2  -3  -2   29.69    0.66 
  -2  -3  -2   28.04    0.78 
  -2  -3  -1   19.95    0.86 
  -2  -3  -1   22.13    0.78 
  -2  -3  -1   21.52    0.77 
  -2  -3  -1   15.90    0.73 
  -2  -3  -1   17.99    0.58 
  -2  -3  -1   17.28    0.59 
  -2  -3  -1   18.15    0.66 
  -2  -3  -1   16.39    0.56 
  -2  -3   0    9.04    0.48 
  -2  -3   0    9.46    0.62 
  -2  -3   0   10.39    0.59 
  -2  -3   0    7.98    0.54 
  -2  -3   0   10.29    0.58 
  -2  -3   0    9.31    0.46 
  -2  -3   0    9.62    0.46 
  -2  -3   0    9.23    0.48 
  -2  -3   0   10.04    0.49 
  -2  -3   0    8.86    0.42 
  -2  -3   1  372.22    4.08 
  -2  -3   1  379.25    4.11 
  -2  -3   1  374.74    4.07 
  -2  -3   2   26.36    0.80 
  -2  -3   2   24.93    0.61 
  -2  -3   2   22.78    0.80 
  -2  -3   2   25.68    0.82 
  -2  -3   2   27.29    0.86 
  -2  -3   2   22.85    0.71 
  -2  -3   2   25.26    0.75 
  -2  -3   2   26.49    0.84 
  -2  -3   3  295.07    3.88 
  -2  -3   3  322.47    3.84 
  -2  -3   3  296.36    3.34 
  -2  -3   3  311.44    3.42 
  -2  -3   3  299.01    3.43 
  -2  -3   3  302.65    3.95 
  -2  -3   3  315.88    3.81 
  -2  -3   3  310.55    3.23 
  -2  -3   3  320.43    3.81 
  -2  -3   3  310.46    3.23 
  -2  -3   3  318.91    3.84 
  -2  -3   3  299.68    4.02 
  -2  -3   3  330.44    3.80 
  -2  -3   4    9.14    0.63 
  -2  -3   4   11.77    0.63 
  -2  -3   4   10.35    0.48 
  -2  -3   4   10.81    0.61 
  -2  -3   4    9.99    0.46 
  -2  -3   4    9.91    0.47 
  -2  -3   4   10.30    0.49 
  -2  -3   4   10.39    0.64 
  -2  -3   4   10.48    0.62 
  -2  -3   4   10.71    0.63 
  -2  -3   4    8.39    0.57 
  -2  -3   5   15.43    0.85 
  -2  -3   5    9.29    0.75 
  -2  -3   5   16.03    0.61 
  -2  -3   5   16.76    0.62 
  -2  -3   5    7.90    0.84 
  -2  -3   5   17.46    0.81 
  -2  -3   5   15.32    0.60 
  -2  -3   5   13.48    0.52 
  -2  -3   5   13.10    0.52 
  -2  -3   5   14.93    0.56 
  -2  -3   5   15.45    0.64 
  -2  -3   5   10.83    0.78 
  -2  -3   5   15.46    0.74 
  -2  -3   5   13.62    0.75 
  -2  -3   6   28.52    0.79 
  -2  -3   6   33.38    0.87 
  -2  -3   6   28.88    0.87 
  -2  -3   6   31.98    0.90 
  -2  -3   6   27.98    0.77 
  -2  -3   6   28.32    0.78 
  -2  -3   6   28.40    1.03 
  -2  -3   6   33.63    1.16 
  -2  -3   6   31.97    0.96 
  -2  -3   6   32.47    0.97 
  -2  -3   6   32.95    0.97 
  -2  -3   6   33.18    1.15 
  -2  -3   6   27.37    1.30 
  -2  -3   6   36.52    0.85 
  -2  -3   6   22.54    1.28 
  -2  -3   6   33.69    1.22 
  -2  -3   7   34.33    0.90 
  -2  -3   7   37.08    0.94 
  -2  -3   7   36.03    0.90 
  -2  -3   7   39.59    1.12 
  -2  -3   7   41.47    1.15 
  -2  -3   7   36.01    0.89 
  -2  -3   7   40.36    1.48 
  -2  -3   7   34.40    1.48 
  -2  -3   7   35.89    0.99 
  -2  -3   7   34.69    0.90 
  -2  -3   8   78.61    1.62 
  -2  -3   8   78.84    1.62 
  -2  -3   8   65.49    1.29 
  -2  -3   8   63.98    1.31 
  -2  -3   8   75.10    1.35 
  -2  -3   8   74.24    1.36 
  -2  -3   8   75.40    2.01 
  -2  -3   8   65.96    1.31 
  -2  -3   9    3.59    0.36 
  -2  -3   9    3.62    0.35 
  -2  -3   9    3.34    0.36 
  -2  -3   9    3.05    0.36 
  -2  -3   9    3.75    0.42 
  -2  -3   9    3.35    0.42 
  -2  -3  10    7.84    0.47 
  -2  -3  10    8.04    0.40 
  -2  -3  10    9.05    0.47 
  -2  -3  10    9.52    0.52 
  -2  -3  10    7.89    0.40 
  -2  -3  11   -0.06    0.18 
  -2  -2 -11    0.06    0.30 
  -2  -2 -11    0.12    0.29 
  -2  -2 -11    0.32    0.29 
  -2  -2 -10    3.95    0.45 
  -2  -2 -10    4.18    0.59 
  -2  -2 -10    2.93    0.59 
  -2  -2 -10    4.09    0.57 
  -2  -2 -10    3.18    0.43 
  -2  -2 -10    3.93    0.43 
  -2  -2  -9    3.58    0.57 
  -2  -2  -9    3.54    0.55 
  -2  -2  -9    4.65    0.73 
  -2  -2  -9    4.46    0.53 
  -2  -2  -9    3.86    0.50 
  -2  -2  -9    4.11    0.48 
  -2  -2  -9    3.43    0.49 
  -2  -2  -9    4.16    0.69 
  -2  -2  -9    4.42    0.65 
  -2  -2  -8   20.36    1.18 
  -2  -2  -8   22.05    1.03 
  -2  -2  -8   20.57    1.11 
  -2  -2  -8   20.20    0.94 
  -2  -2  -8   22.50    0.95 
  -2  -2  -8   21.05    0.75 
  -2  -2  -8   16.68    0.63 
  -2  -2  -8   21.24    0.82 
  -2  -2  -8   21.16    0.79 
  -2  -2  -8   19.40    0.77 
  -2  -2  -8   18.59    0.76 
  -2  -2  -8   22.18    1.18 
  -2  -2  -8   16.06    0.87 
  -2  -2  -8   22.00    1.19 
  -2  -2  -7    1.81    0.97 
  -2  -2  -7    1.61    0.49 
  -2  -2  -7    1.20    0.53 
  -2  -2  -7    1.48    0.42 
  -2  -2  -7    1.68    0.48 
  -2  -2  -7    1.55    0.36 
  -2  -2  -7    1.58    0.41 
  -2  -2  -7    1.54    0.39 
  -2  -2  -7    1.50    0.36 
  -2  -2  -7    0.96    0.39 
  -2  -2  -7    1.40    0.54 
  -2  -2  -7    1.65    0.60 
  -2  -2  -7    0.99    0.42 
  -2  -2  -6   16.52    0.78 
  -2  -2  -6   17.57    0.90 
  -2  -2  -6   15.83    0.74 
  -2  -2  -6   14.33    0.70 
  -2  -2  -6   16.83    0.60 
  -2  -2  -6   16.87    0.64 
  -2  -2  -6   17.09    0.62 
  -2  -2  -6   17.34    0.63 
  -2  -2  -6   16.67    0.62 
  -2  -2  -6   18.66    0.96 
  -2  -2  -6   15.03    0.66 
  -2  -2  -6   17.99    0.95 
  -2  -2  -6   17.69    1.28 
  -2  -2  -5   39.84    1.13 
  -2  -2  -5   33.68    0.93 
  -2  -2  -5   40.02    1.07 
  -2  -2  -5   39.23    0.86 
  -2  -2  -5   40.23    0.85 
  -2  -2  -5   39.38    0.84 
  -2  -2  -5   40.31    1.53 
  -2  -2  -5   40.28    1.21 
  -2  -2  -5   37.50    0.83 
  -2  -2  -5   35.93    0.98 
  -2  -2  -5   34.72    0.97 
  -2  -2  -5   40.49    1.21 
  -2  -2  -4    0.76    0.30 
  -2  -2  -4    0.94    0.32 
  -2  -2  -4    0.94    0.40 
  -2  -2  -4    1.18    0.43 
  -2  -2  -4    1.15    0.71 
  -2  -2  -4    1.13    0.35 
  -2  -2  -4    0.85    0.27 
  -2  -2  -4    0.70    0.28 
  -2  -2  -4    0.87    0.36 
  -2  -2  -3    0.92    0.58 
  -2  -2  -3    0.59    0.32 
  -2  -2  -3    0.85    0.31 
  -2  -2  -3    1.31    0.34 
  -2  -2  -3    0.95    0.24 
  -2  -2  -3    1.03    0.28 
  -2  -2  -3    1.06    0.28 
  -2  -2  -2    0.21    0.24 
  -2  -2  -2    0.18    0.25 
  -2  -2  -2    0.28    0.22 
  -2  -2  -2    0.29    0.23 
  -2  -2  -2    0.42    0.28 
  -2  -2  -2    0.12    0.21 
  -2  -2  -1  374.95    3.88 
  -2  -2  -1  365.31    3.95 
  -2  -2  -1  357.36    3.83 
  -2  -2  -1  378.33    4.00 
  -2  -2  -1  350.67    3.81 
  -2  -2   0  186.22    2.29 
  -2  -2   0  181.30    2.14 
  -2  -2   0  185.80    2.23 
  -2  -2   0  185.48    2.22 
  -2  -2   0  186.79    2.18 
  -2  -2   0  188.07    2.20 
  -2  -2   1   41.03    0.83 
  -2  -2   1   37.46    0.78 
  -2  -2   1   38.60    0.77 
  -2  -2   1   40.51    0.82 
  -2  -2   1   40.44    0.82 
  -2  -2   2  380.62    4.09 
  -2  -2   2  388.02    4.23 
  -2  -2   2  382.66    4.17 
  -2  -2   2  391.37    4.33 
  -2  -2   2  387.14    4.23 
  -2  -2   3  115.16    1.71 
  -2  -2   3  106.31    1.50 
  -2  -2   3  112.39    1.73 
  -2  -2   3  106.25    1.81 
  -2  -2   3  109.45    1.40 
  -2  -2   3  109.55    1.40 
  -2  -2   3  111.05    1.81 
  -2  -2   4    0.13    0.23 
  -2  -2   4    0.12    0.30 
  -2  -2   4   -0.39    0.30 
  -2  -2   4    0.14    0.24 
  -2  -2   4    0.04    0.32 
  -2  -2   4    0.91    0.26 
  -2  -2   4    0.60    0.24 
  -2  -2   4    0.55    0.33 
  -2  -2   4    0.46    0.39 
  -2  -2   4    0.68    0.34 
  -2  -2   5   59.49    1.53 
  -2  -2   5   68.94    1.26 
  -2  -2   5   64.42    1.25 
  -2  -2   5   72.95    1.62 
  -2  -2   5   57.74    1.52 
  -2  -2   5   71.10    1.34 
  -2  -2   5   69.85    1.33 
  -2  -2   5   60.75    1.23 
  -2  -2   5   67.01    1.18 
  -2  -2   5   73.07    1.59 
  -2  -2   6   10.49    0.70 
  -2  -2   6    9.37    0.52 
  -2  -2   6    9.19    0.52 
  -2  -2   6   10.05    0.59 
  -2  -2   6   10.60    0.59 
  -2  -2   6    8.96    0.54 
  -2  -2   6    8.79    0.43 
  -2  -2   7    2.25    0.38 
  -2  -2   7    2.12    0.32 
  -2  -2   7    1.97    0.48 
  -2  -2   7    2.46    0.38 
  -2  -2   7    2.05    0.29 
  -2  -2   7    2.39    0.52 
  -2  -2   7    2.00    0.42 
  -2  -2   8   23.06    0.76 
  -2  -2   8   27.00    0.89 
  -2  -2   8   23.61    0.77 
  -2  -2   8   26.89    1.20 
  -2  -2   8   26.49    0.92 
  -2  -2   8   27.26    0.79 
  -2  -2   8   27.80    0.82 
  -2  -2   8   29.84    1.33 
  -2  -2   8   26.39    0.74 
  -2  -2   8   26.77    1.30 
  -2  -2   9   14.49    0.67 
  -2  -2   9   13.83    0.59 
  -2  -2   9   14.04    0.60 
  -2  -2   9   16.63    0.62 
  -2  -2   9   16.33    0.67 
  -2  -2  10    0.52    0.27 
  -2  -2  10    0.57    0.26 
  -2  -2  10    0.50    0.39 
  -2  -2  10    0.76    0.28 
  -2  -2  11    5.96    0.31 
  -2  -2  11    5.51    0.31 
  -2  -1 -12   26.67    0.59 
  -2  -1 -11    4.21    0.39 
  -2  -1 -11    4.46    0.40 
  -2  -1 -10    1.62    0.48 
  -2  -1 -10    2.12    0.57 
  -2  -1 -10    1.61    0.51 
  -2  -1 -10    1.52    0.41 
  -2  -1 -10    2.07    0.39 
  -2  -1 -10    1.80    0.42 
  -2  -1 -10    1.85    0.55 
  -2  -1 -10    0.53    0.45 
  -2  -1  -9  158.27    2.89 
  -2  -1  -9  168.23    2.46 
  -2  -1  -9  167.02    2.93 
  -2  -1  -9  161.42    3.13 
  -2  -1  -9  174.44    2.64 
  -2  -1  -9  137.66    2.10 
  -2  -1  -9  167.59    3.25 
  -2  -1  -9  164.45    2.40 
  -2  -1  -9  166.22    2.36 
  -2  -1  -9  162.22    2.38 
  -2  -1  -9  162.36    3.33 
  -2  -1  -9  158.43    3.33 
  -2  -1  -9  144.70    2.66 
  -2  -1  -9  171.94    3.25 
  -2  -1  -8   12.24    0.78 
  -2  -1  -8   13.07    0.71 
  -2  -1  -8   12.54    0.83 
  -2  -1  -8   11.88    0.95 
  -2  -1  -8   11.96    0.76 
  -2  -1  -8   11.90    0.59 
  -2  -1  -8   10.49    0.55 
  -2  -1  -8   10.17    0.72 
  -2  -1  -8   12.33    0.95 
  -2  -1  -8   11.72    0.66 
  -2  -1  -8   12.50    0.63 
  -2  -1  -8   11.47    0.65 
  -2  -1  -8   12.66    0.97 
  -2  -1  -8   10.06    0.73 
  -2  -1  -8   12.15    0.96 
  -2  -1  -8   11.02    0.94 
  -2  -1  -7  102.93    1.79 
  -2  -1  -7   99.52    2.38 
  -2  -1  -7   97.29    1.90 
  -2  -1  -7  102.58    1.63 
  -2  -1  -7   94.64    1.48 
  -2  -1  -7   87.02    1.81 
  -2  -1  -7  100.75    2.40 
  -2  -1  -7  100.62    1.68 
  -2  -1  -7  101.60    1.66 
  -2  -1  -7  101.26    1.68 
  -2  -1  -7  103.37    2.07 
  -2  -1  -7  101.48    2.30 
  -2  -1  -7   95.42    1.98 
  -2  -1  -7  106.77    2.42 
  -2  -1  -7  105.38    2.41 
  -2  -1  -7   99.19    2.20 
  -2  -1  -6  142.37    2.37 
  -2  -1  -6  150.44    2.32 
  -2  -1  -6  150.55    2.06 
  -2  -1  -6  163.14    2.17 
  -2  -1  -6  154.26    2.09 
  -2  -1  -6  152.92    2.14 
  -2  -1  -6  150.88    2.13 
  -2  -1  -6  152.15    2.75 
  -2  -1  -6  157.01    2.83 
  -2  -1  -6  152.46    2.82 
  -2  -1  -6  157.28    2.79 
  -2  -1  -6  157.93    2.81 
  -2  -1  -6  153.26    2.77 
  -2  -1  -5  156.93    2.24 
  -2  -1  -5  153.39    2.20 
  -2  -1  -5  146.70    2.00 
  -2  -1  -5  170.40    2.14 
  -2  -1  -5  159.06    2.67 
  -2  -1  -5  163.11    2.68 
  -2  -1  -5  164.18    2.11 
  -2  -1  -5  164.25    2.08 
  -2  -1  -5  159.06    2.59 
  -2  -1  -5  161.96    2.41 
  -2  -1  -5  159.49    2.61 
  -2  -1  -5  163.11    2.64 
  -2  -1  -5  163.29    2.77 
  -2  -1  -5  165.87    2.10 
  -2  -1  -4  384.28    4.61 
  -2  -1  -4  393.26    4.58 
  -2  -1  -4  392.09    4.59 
  -2  -1  -4  381.61    4.03 
  -2  -1  -4  379.48    4.51 
  -2  -1  -4  393.02    4.63 
  -2  -1  -4  389.07    4.42 
  -2  -1  -4  388.78    4.19 
  -2  -1  -3  237.50    2.87 
  -2  -1  -3  237.80    2.89 
  -2  -1  -3  263.70    3.14 
  -2  -1  -3  220.81    2.79 
  -2  -1  -3  209.70    2.38 
  -2  -1  -3  229.52    2.76 
  -2  -1  -3  223.37    2.84 
  -2  -1  -3  228.59    2.75 
  -2  -1  -3  228.48    2.87 
  -2  -1  -3  227.06    2.56 
  -2  -1  -3  260.15    2.88 
  -2  -1  -2   80.69    1.32 
  -2  -1  -2   81.64    1.31 
  -2  -1  -2   81.56    1.30 
  -2  -1  -2   77.83    1.27 
  -2  -1  -2   87.88    1.29 
  -2  -1  -2   87.06    1.30 
  -2  -1  -2   81.51    1.39 
  -2  -1  -2   78.73    1.06 
  -2  -1  -1   45.43    0.83 
  -2  -1  -1   43.94    0.82 
  -2  -1  -1   45.29    0.72 
  -2  -1  -1   42.45    0.88 
  -2  -1  -1   43.05    0.75 
  -2  -1   0 1407.99   12.89 
  -2  -1   0 1403.73   13.06 
  -2  -1   0 1425.51   12.89 
  -2  -1   1   43.47    0.77 
  -2  -1   1   43.58    0.80 
  -2  -1   1   42.95    0.76 
  -2  -1   2  470.00    4.94 
  -2  -1   2  473.34    4.92 
  -2  -1   2  510.48    5.05 
  -2  -1   2  511.37    5.05 
  -2  -1   3   40.05    0.96 
  -2  -1   3   39.26    0.89 
  -2  -1   4    5.29    0.42 
  -2  -1   4    4.37    0.43 
  -2  -1   4    5.31    0.43 
  -2  -1   4    5.46    0.32 
  -2  -1   4    5.04    0.44 
  -2  -1   5    4.92    0.45 
  -2  -1   5    3.45    0.44 
  -2  -1   5    4.31    0.46 
  -2  -1   5    4.39    0.34 
  -2  -1   5    4.49    0.47 
  -2  -1   5    3.11    0.37 
  -2  -1   6   88.40    1.81 
  -2  -1   6   83.93    1.45 
  -2  -1   6   81.12    1.91 
  -2  -1   6   77.61    1.82 
  -2  -1   6   77.96    1.45 
  -2  -1   6   85.81    1.91 
  -2  -1   7   11.11    0.50 
  -2  -1   7    9.80    0.48 
  -2  -1   7   10.79    0.79 
  -2  -1   7   11.25    0.72 
  -2  -1   7   10.49    0.55 
  -2  -1   7    9.54    0.59 
  -2  -1   7   10.17    0.52 
  -2  -1   7    9.71    0.49 
  -2  -1   7    9.01    0.75 
  -2  -1   7   11.94    0.62 
  -2  -1   8   13.89    0.56 
  -2  -1   8   10.65    0.95 
  -2  -1   8   13.57    0.85 
  -2  -1   8   13.53    0.64 
  -2  -1   8   14.76    0.74 
  -2  -1   8    9.43    0.68 
  -2  -1   8   13.58    0.91 
  -2  -1   8   14.86    0.63 
  -2  -1   8   14.23    0.65 
  -2  -1   9    0.62    0.29 
  -2  -1   9   -0.03    0.34 
  -2  -1   9    0.07    0.38 
  -2  -1   9    0.03    0.43 
  -2  -1   9    0.73    0.34 
  -2  -1   9    0.42    0.34 
  -2  -1   9    0.48    0.24 
  -2  -1  10    0.62    0.35 
  -2  -1  10    0.10    0.36 
  -2  -1  11   22.49    0.54 
  -2  -1  11   22.44    0.59 
  -2  -1  11   22.60    0.67 
  -2   0 -11    0.40    0.33 
  -2   0 -11    0.34    0.30 
  -2   0 -11    0.22    0.30 
  -2   0 -10   36.78    1.00 
  -2   0 -10   36.31    0.99 
  -2   0 -10   35.77    0.99 
  -2   0 -10   36.91    1.01 
  -2   0 -10   33.89    1.16 
  -2   0  -9   12.12    0.71 
  -2   0  -9   12.74    0.88 
  -2   0  -9   11.52    0.92 
  -2   0  -9   11.31    0.79 
  -2   0  -9   10.96    0.59 
  -2   0  -9   11.14    0.73 
  -2   0  -9   12.61    0.68 
  -2   0  -9   12.50    0.67 
  -2   0  -9   12.29    0.64 
  -2   0  -9   10.93    0.91 
  -2   0  -9   10.95    0.88 
  -2   0  -9   11.11    0.83 
  -2   0  -8    0.47    0.45 
  -2   0  -8    0.22    0.56 
  -2   0  -8    0.15    0.58 
  -2   0  -8    0.08    0.51 
  -2   0  -8    0.10    0.37 
  -2   0  -8    0.14    0.38 
  -2   0  -8    0.37    0.47 
  -2   0  -8    0.40    0.44 
  -2   0  -8    0.11    0.39 
  -2   0  -8    0.18    0.43 
  -2   0  -8    0.53    0.53 
  -2   0  -8    0.50    0.50 
  -2   0  -8    0.24    0.47 
  -2   0  -7    0.17    0.43 
  -2   0  -7    0.82    0.50 
  -2   0  -7    0.84    0.53 
  -2   0  -7    0.36    0.57 
  -2   0  -7    0.33    0.34 
  -2   0  -7    0.50    0.36 
  -2   0  -7    0.48    0.46 
  -2   0  -7    0.46    0.40 
  -2   0  -7    0.59    0.35 
  -2   0  -7    0.54    0.40 
  -2   0  -7    0.50    0.46 
  -2   0  -7    0.95    0.49 
  -2   0  -7    0.29    0.47 
  -2   0  -7    0.36    0.44 
  -2   0  -6   20.91    0.88 
  -2   0  -6   18.19    1.01 
  -2   0  -6   17.47    0.93 
  -2   0  -6   19.52    0.64 
  -2   0  -6   20.28    0.84 
  -2   0  -6   21.50    0.73 
  -2   0  -6   19.45    0.66 
  -2   0  -6   20.20    0.83 
  -2   0  -6   21.39    0.73 
  -2   0  -6   20.47    0.84 
  -2   0  -6   20.22    0.96 
  -2   0  -6   20.76    0.85 
  -2   0  -6   20.26    0.95 
  -2   0  -5    0.15    0.40 
  -2   0  -5    0.14    0.41 
  -2   0  -5    0.39    0.43 
  -2   0  -5    0.46    0.39 
  -2   0  -5    1.29    0.34 
  -2   0  -5    0.35    0.38 
  -2   0  -5    0.26    0.51 
  -2   0  -5    0.48    0.43 
  -2   0  -5    0.12    0.30 
  -2   0  -5    0.96    0.37 
  -2   0  -4   19.94    0.72 
  -2   0  -4   21.29    0.77 
  -2   0  -4   20.59    0.75 
  -2   0  -4   19.58    0.82 
  -2   0  -4   20.39    0.76 
  -2   0  -4   21.24    0.60 
  -2   0  -4   22.17    0.69 
  -2   0  -3  585.78    5.86 
  -2   0  -3  599.18    6.03 
  -2   0  -3  589.14    6.03 
  -2   0  -2    3.71    0.30 
  -2   0  -2    4.12    0.25 
  -2   0  -2    4.53    0.29 
  -2   0  -2    4.32    0.29 
  -2   0  -2    4.84    0.36 
  -2   0   1   29.00    0.57 
  -2   0   1   29.41    0.68 
  -2   0   1   29.50    0.68 
  -2   0   2  103.18    1.36 
  -2   0   2  109.41    1.54 
  -2   0   3  182.92    2.18 
  -2   0   3  187.48    2.37 
  -2   0   4   21.09    0.71 
  -2   0   4   19.58    0.69 
  -2   0   4   20.25    0.55 
  -2   0   5    0.05    0.27 
  -2   0   5    0.17    0.26 
  -2   0   5    0.19    0.20 
  -2   0   5    0.22    0.22 
  -2   0   6    3.56    0.46 
  -2   0   6    3.73    0.37 
  -2   0   6    2.91    0.43 
  -2   0   7    4.39    0.41 
  -2   0   7    4.25    0.41 
  -2   0   7    4.32    0.37 
  -2   0   7    3.99    0.43 
  -2   0   7    4.38    0.37 
  -2   0   7    4.51    0.42 
  -2   0   7    4.25    0.55 
  -2   0   7    4.03    0.54 
  -2   0   7    3.81    0.45 
  -2   0   8   87.95    1.59 
  -2   0   8   88.10    1.53 
  -2   0   8   83.13    1.45 
  -2   0   8   88.53    2.14 
  -2   0   8   85.27    2.14 
  -2   0   9   21.89    0.74 
  -2   0   9   22.50    0.77 
  -2   0   9   11.53    0.86 
  -2   0   9   19.17    0.63 
  -2   0   9   20.07    1.04 
  -2   0   9   19.73    0.73 
  -2   0   9    7.72    0.81 
  -2   0   9   18.97    0.72 
  -2   0  10   26.25    1.06 
  -2   0  10   33.85    0.73 
  -2   0  10   37.54    0.99 
  -2   0  10   38.66    0.91 
  -2   0  10   38.55    0.92 
  -2   0  10   39.44    0.90 
  -2   0  10   30.80    0.94 
  -2   0  11   16.11    0.51 
  -2   0  11   16.25    0.52 
  -2   0  11   15.67    0.49 
  -2   1 -12    3.23    0.24 
  -2   1 -11    9.32    0.47 
  -2   1 -11    8.56    0.47 
  -2   1 -11    9.73    0.48 
  -2   1 -10   18.02    0.73 
  -2   1 -10   15.47    0.90 
  -2   1 -10   14.87    0.75 
  -2   1 -10   17.30    0.71 
  -2   1 -10   15.85    0.69 
  -2   1 -10   16.44    0.85 
  -2   1 -10   15.87    0.91 
  -2   1 -10   15.87    0.59 
  -2   1  -9    0.48    0.54 
  -2   1  -9    0.85    0.44 
  -2   1  -9    0.72    0.43 
  -2   1  -9    0.84    0.40 
  -2   1  -9    0.72    0.47 
  -2   1  -9    0.86    0.52 
  -2   1  -9    0.77    0.54 
  -2   1  -9    0.62    0.47 
  -2   1  -9    0.48    0.40 
  -2   1  -9    0.62    0.45 
  -2   1  -9    0.43    0.46 
  -2   1  -9    1.55    0.53 
  -2   1  -8  325.79    4.66 
  -2   1  -8  317.16    4.06 
  -2   1  -8  322.72    4.64 
  -2   1  -8  303.02    4.64 
  -2   1  -8  339.61    4.13 
  -2   1  -8  322.95    3.81 
  -2   1  -8  331.94    3.77 
  -2   1  -8  329.84    3.76 
  -2   1  -8  324.80    4.01 
  -2   1  -8  318.11    4.37 
  -2   1  -8  324.76    4.83 
  -2   1  -8  322.18    3.87 
  -2   1  -8  305.18    4.65 
  -2   1  -8  309.80    4.67 
  -2   1  -8  328.42    4.53 
  -2   1  -8  332.03    4.84 
  -2   1  -7   28.36    1.19 
  -2   1  -7   29.20    0.99 
  -2   1  -7   27.87    1.19 
  -2   1  -7   27.24    1.21 
  -2   1  -7   29.50    0.99 
  -2   1  -7   30.82    1.00 
  -2   1  -7   30.21    0.88 
  -2   1  -7   28.26    0.81 
  -2   1  -7   31.71    0.97 
  -2   1  -7   33.86    0.91 
  -2   1  -7   30.82    1.31 
  -2   1  -7   26.57    1.14 
  -2   1  -7   28.57    1.27 
  -2   1  -7   28.78    0.88 
  -2   1  -7   29.54    1.17 
  -2   1  -7   28.87    1.20 
  -2   1  -7   27.32    1.16 
  -2   1  -6   12.84    0.78 
  -2   1  -6   12.89    0.58 
  -2   1  -6   15.59    0.65 
  -2   1  -6   14.95    0.64 
  -2   1  -6   12.43    0.59 
  -2   1  -6   13.85    0.64 
  -2   1  -6   13.60    0.64 
  -2   1  -6   10.16    0.72 
  -2   1  -6   12.33    0.81 
  -2   1  -6   14.34    0.78 
  -2   1  -6   12.06    0.61 
  -2   1  -6   14.79    0.90 
  -2   1  -6   14.19    0.89 
  -2   1  -6   14.10    0.80 
  -2   1  -6   12.57    0.77 
  -2   1  -5   15.79    0.74 
  -2   1  -5   14.02    0.58 
  -2   1  -5   16.57    0.61 
  -2   1  -5   19.80    0.69 
  -2   1  -5   19.18    0.68 
  -2   1  -5   14.53    0.59 
  -2   1  -5   15.90    0.65 
  -2   1  -5   16.03    0.76 
  -2   1  -5   14.92    0.74 
  -2   1  -5   16.40    0.66 
  -2   1  -5   17.53    0.80 
  -2   1  -5   14.45    0.79 
  -2   1  -5   19.13    0.84 
  -2   1  -5   17.08    0.92 
  -2   1  -5   16.49    0.91 
  -2   1  -4   21.23    0.86 
  -2   1  -4   25.17    0.96 
  -2   1  -4   25.96    0.75 
  -2   1  -4   26.82    0.89 
  -2   1  -4   26.59    0.98 
  -2   1  -4   25.61    0.73 
  -2   1  -4   21.28    0.65 
  -2   1  -4   25.77    0.74 
  -2   1  -4   21.75    0.66 
  -2   1  -4   24.60    0.86 
  -2   1  -4   23.28    0.80 
  -2   1  -4   23.73    0.79 
  -2   1  -4   24.72    0.80 
  -2   1  -3  397.95    4.24 
  -2   1  -3  394.10    4.23 
  -2   1  -3  404.07    4.55 
  -2   1  -3  411.01    4.39 
  -2   1  -3  400.50    4.55 
  -2   1  -3  406.25    4.15 
  -2   1  -3  407.65    4.57 
  -2   1  -2    5.25    0.42 
  -2   1  -2    4.76    0.28 
  -2   1  -2    4.72    0.37 
  -2   1  -2    5.07    0.35 
  -2   1  -2    4.19    0.20 
  -2   1  -1  464.21    4.68 
  -2   1  -1  460.75    4.50 
  -2   1  -1  464.37    4.65 
  -2   1   0    1.70    0.22 
  -2   1   0    1.64    0.22 
  -2   1   1  320.89    3.48 
  -2   1   1  319.15    3.48 
  -2   1   4   76.77    1.42 
  -2   1   4   74.69    1.53 
  -2   1   4   72.99    1.52 
  -2   1   5    0.57    0.39 
  -2   1   5    0.40    0.38 
  -2   1   5    0.76    0.22 
  -2   1   5    0.61    0.29 
  -2   1   5    0.67    0.32 
  -2   1   5    0.51    0.28 
  -2   1   6   29.53    0.80 
  -2   1   6   27.53    0.73 
  -2   1   6   32.28    1.02 
  -2   1   6   34.00    0.85 
  -2   1   6   27.96    0.84 
  -2   1   6   29.83    0.81 
  -2   1   6   28.49    1.07 
  -2   1   6   32.10    1.01 
  -2   1   7  105.95    1.75 
  -2   1   7   94.24    1.60 
  -2   1   7   97.86    1.69 
  -2   1   7   94.05    1.61 
  -2   1   7  106.81    2.10 
  -2   1   8  177.32    2.44 
  -2   1   8  172.55    2.50 
  -2   1   8  162.13    2.35 
  -2   1   8  188.09    2.62 
  -2   1   9  220.43    2.87 
  -2   1   9  215.43    2.96 
  -2   1   9  210.92    2.75 
  -2   1   9  221.19    2.86 
  -2   1  10    0.34    0.28 
  -2   1  10    0.37    0.29 
  -2   1  10    0.39    0.30 
  -2   1  11    2.14    0.27 
  -2   1  11    1.81    0.31 
  -2   2 -12    1.46    0.17 
  -2   2 -11   -0.21    0.29 
  -2   2 -11    0.05    0.25 
  -2   2 -10   19.19    0.64 
  -2   2 -10   19.67    0.91 
  -2   2 -10   20.27    0.70 
  -2   2 -10   21.72    0.75 
  -2   2 -10   19.52    0.90 
  -2   2 -10   20.74    0.91 
  -2   2 -10   18.87    0.70 
  -2   2  -9   22.50    0.89 
  -2   2  -9   21.18    0.71 
  -2   2  -9   20.72    0.71 
  -2   2  -9   21.76    1.00 
  -2   2  -9   20.90    1.04 
  -2   2  -9   23.21    0.78 
  -2   2  -9   25.28    0.92 
  -2   2  -9   23.65    0.83 
  -2   2  -9   23.17    1.07 
  -2   2  -9   21.23    1.07 
  -2   2  -9   20.66    1.10 
  -2   2  -8  472.77    6.17 
  -2   2  -8  495.16    5.26 
  -2   2  -8  500.69    5.49 
  -2   2  -8  475.84    5.16 
  -2   2  -8  475.12    5.16 
  -2   2  -8  449.45    5.91 
  -2   2  -8  462.21    6.05 
  -2   2  -8  492.24    5.28 
  -2   2  -8  505.33    5.51 
  -2   2  -8  476.99    5.35 
  -2   2  -8  405.98    5.72 
  -2   2  -8  401.76    5.72 
  -2   2  -8  473.30    6.06 
  -2   2  -8  516.11    6.16 
  -2   2  -7    3.37    0.68 
  -2   2  -7    3.54    0.62 
  -2   2  -7    3.46    0.51 
  -2   2  -7    3.41    0.50 
  -2   2  -7    3.84    0.49 
  -2   2  -7    3.59    0.53 
  -2   2  -7    3.59    0.49 
  -2   2  -7    3.35    0.49 
  -2   2  -7    2.90    0.47 
  -2   2  -7    3.03    0.61 
  -2   2  -7    1.29    0.60 
  -2   2  -7    3.51    0.65 
  -2   2  -7    3.12    0.47 
  -2   2  -7    3.47    0.62 
  -2   2  -7    2.16    0.51 
  -2   2  -7    2.61    0.51 
  -2   2  -6   22.18    1.01 
  -2   2  -6   20.24    0.69 
  -2   2  -6   21.21    0.76 
  -2   2  -6   23.28    0.78 
  -2   2  -6   22.62    0.78 
  -2   2  -6   20.56    0.78 
  -2   2  -6   20.94    1.02 
  -2   2  -6   20.16    1.02 
  -2   2  -6   19.93    0.83 
  -2   2  -6   20.97    0.99 
  -2   2  -6   19.35    0.75 
  -2   2  -6   17.95    0.98 
  -2   2  -6   21.83    1.07 
  -2   2  -6   20.40    0.83 
  -2   2  -6   17.71    0.84 
  -2   2  -6   18.68    0.86 
  -2   2  -5   97.24    1.59 
  -2   2  -5  111.10    1.70 
  -2   2  -5  118.82    1.76 
  -2   2  -5  120.97    1.77 
  -2   2  -5  102.41    1.71 
  -2   2  -5  114.91    2.13 
  -2   2  -5  112.79    2.16 
  -2   2  -5  105.83    1.86 
  -2   2  -5  109.62    2.17 
  -2   2  -5  102.08    1.69 
  -2   2  -5  116.94    2.14 
  -2   2  -5  103.68    2.06 
  -2   2  -5   97.81    1.85 
  -2   2  -5   99.28    1.84 
  -2   2  -5  113.72    2.22 
  -2   2  -5  110.18    2.20 
  -2   2  -4  314.86    3.77 
  -2   2  -4  357.63    3.82 
  -2   2  -4  386.82    3.92 
  -2   2  -4  384.30    3.92 
  -2   2  -4  341.98    4.35 
  -2   2  -4  361.05    4.14 
  -2   2  -4  368.48    4.42 
  -2   2  -4  305.50    3.83 
  -2   2  -4  372.36    4.36 
  -2   2  -4  320.10    3.92 
  -2   2  -4  349.95    4.46 
  -2   2  -4  353.18    4.44 
  -2   2  -3   26.83    0.93 
  -2   2  -3   30.20    0.82 
  -2   2  -3   29.53    0.90 
  -2   2  -3   25.83    0.83 
  -2   2  -3   26.74    0.74 
  -2   2  -3   26.16    0.84 
  -2   2  -3   30.03    0.90 
  -2   2  -3   25.36    0.64 
  -2   2  -3   27.49    0.72 
  -2   2  -3   22.17    0.58 
  -2   2  -3   22.77    0.59 
  -2   2  -2  653.24    6.41 
  -2   2  -2  654.72    6.43 
  -2   2  -2  667.89    6.73 
  -2   2  -2  658.56    6.59 
  -2   2  -2  678.78    6.74 
  -2   2  -1  161.47    1.96 
  -2   2  -1  161.34    1.97 
  -2   2   0  604.88    6.06 
  -2   2   0  598.98    6.05 
  -2   2   1  115.49    1.72 
  -2   2   1  116.54    1.72 
  -2   2   2  204.52    2.69 
  -2   2   2  205.11    2.68 
  -2   2   3  264.54    3.04 
  -2   2   3  267.35    3.05 
  -2   2   4    0.36    0.34 
  -2   2   4    0.80    0.35 
  -2   2   4    0.35    0.35 
  -2   2   4    0.78    0.36 
  -2   2   5   22.45    0.96 
  -2   2   5   21.66    0.95 
  -2   2   5   22.19    0.68 
  -2   2   5   21.70    0.76 
  -2   2   5   21.96    0.76 
  -2   2   6   68.98    1.33 
  -2   2   6   70.11    1.20 
  -2   2   6   71.81    1.30 
  -2   2   6   70.35    1.37 
  -2   2   6   73.03    1.39 
  -2   2   6   73.79    1.87 
  -2   2   6   76.34    1.90 
  -2   2   7    1.76    0.44 
  -2   2   7    1.43    0.32 
  -2   2   7    1.85    0.40 
  -2   2   7    1.70    0.38 
  -2   2   7    1.80    0.34 
  -2   2   7    1.76    0.35 
  -2   2   8  226.80    2.91 
  -2   2   8  227.26    2.91 
  -2   2   8  217.65    2.89 
  -2   2   8  228.74    2.99 
  -2   2   9   24.05    0.88 
  -2   2   9   21.93    0.69 
  -2   2   9   21.81    0.75 
  -2   2   9   22.77    0.79 
  -2   2  10   10.53    0.50 
  -2   2  10   11.30    0.53 
  -2   2  10   10.86    0.59 
  -2   2  11    5.06    0.32 
  -2   3 -11   16.37    0.48 
  -2   3 -11   16.86    0.49 
  -2   3 -10    7.48    0.45 
  -2   3 -10    7.47    0.46 
  -2   3 -10    6.85    0.41 
  -2   3 -10    7.69    0.46 
  -2   3 -10    7.31    0.47 
  -2   3  -9   25.48    0.85 
  -2   3  -9   24.12    0.79 
  -2   3  -9   20.66    0.69 
  -2   3  -9   20.76    0.70 
  -2   3  -9   24.98    0.86 
  -2   3  -9   24.72    0.85 
  -2   3  -9   25.03    0.85 
  -2   3  -9   24.52    0.84 
  -2   3  -9   21.34    1.00 
  -2   3  -9   21.23    0.92 
  -2   3  -9   22.17    0.95 
  -2   3  -9   23.98    1.08 
  -2   3  -8   76.13    1.48 
  -2   3  -8   88.99    1.66 
  -2   3  -8   87.93    1.63 
  -2   3  -8   81.92    1.54 
  -2   3  -8   91.11    1.75 
  -2   3  -8   82.41    1.54 
  -2   3  -8   91.84    1.71 
  -2   3  -8   92.55    1.71 
  -2   3  -8   88.60    1.68 
  -2   3  -8   77.20    2.01 
  -2   3  -8   85.17    2.06 
  -2   3  -8   76.02    1.89 
  -2   3  -8   77.33    1.90 
  -2   3  -8   91.08    2.17 
  -2   3  -7   63.42    1.40 
  -2   3  -7   67.05    1.42 
  -2   3  -7   65.26    1.37 
  -2   3  -7   65.65    1.36 
  -2   3  -7   66.52    1.49 
  -2   3  -7   72.10    1.49 
  -2   3  -7   70.23    1.48 
  -2   3  -7   63.90    1.45 
  -2   3  -7   56.65    1.78 
  -2   3  -7   59.84    1.76 
  -2   3  -7   47.70    1.81 
  -2   3  -7   58.13    1.65 
  -2   3  -7   49.45    1.45 
  -2   3  -7   70.39    1.91 
  -2   3  -7   60.01    1.67 
  -2   3  -6   12.47    0.65 
  -2   3  -6   14.22    0.69 
  -2   3  -6   13.88    0.69 
  -2   3  -6   13.04    0.66 
  -2   3  -6   13.34    0.69 
  -2   3  -6   14.56    0.69 
  -2   3  -6   13.98    0.69 
  -2   3  -6   13.62    0.72 
  -2   3  -6   13.43    0.89 
  -2   3  -6   12.78    0.88 
  -2   3  -6   13.55    0.81 
  -2   3  -6   11.54    0.75 
  -2   3  -6   14.29    0.91 
  -2   3  -6   12.62    0.81 
  -2   3  -5    4.13    0.45 
  -2   3  -5    3.56    0.39 
  -2   3  -5    4.24    0.49 
  -2   3  -5    3.57    0.45 
  -2   3  -5    4.05    0.48 
  -2   3  -5    3.96    0.44 
  -2   3  -5    3.80    0.44 
  -2   3  -5    2.46    0.46 
  -2   3  -5    3.95    0.62 
  -2   3  -5    3.36    0.59 
  -2   3  -5    3.85    0.60 
  -2   3  -5    4.67    0.53 
  -2   3  -5    4.16    0.52 
  -2   3  -5    3.41    0.59 
  -2   3  -4   38.95    1.22 
  -2   3  -4   41.22    0.98 
  -2   3  -4   41.35    0.98 
  -2   3  -4   36.51    0.94 
  -2   3  -4   38.43    0.95 
  -2   3  -4   37.15    0.94 
  -2   3  -4   37.90    0.88 
  -2   3  -4   39.98    0.95 
  -2   3  -4   37.97    1.23 
  -2   3  -4   35.28    1.17 
  -2   3  -4   25.06    0.81 
  -2   3  -4   26.93    0.83 
  -2   3  -4   39.90    1.15 
  -2   3  -4   36.77    1.22 
  -2   3  -3  187.66    2.31 
  -2   3  -3  179.27    2.26 
  -2   3  -3  170.90    2.26 
  -2   3  -3  169.44    2.25 
  -2   3  -3  179.29    2.71 
  -2   3  -3  156.71    2.32 
  -2   3  -3  161.61    2.36 
  -2   3  -3  175.66    2.70 
  -2   3  -3  173.24    2.55 
  -2   3  -3  189.55    2.33 
  -2   3  -3  170.78    2.27 
  -2   3  -3  189.09    2.33 
  -2   3  -2  312.49    3.97 
  -2   3  -2  306.91    3.91 
  -2   3  -2  315.31    4.03 
  -2   3  -2  325.53    3.84 
  -2   3  -2  326.63    3.86 
  -2   3  -2  340.29    3.65 
  -2   3  -2  321.48    3.63 
  -2   3  -2  340.49    3.65 
  -2   3  -2  333.04    3.62 
  -2   3  -2  360.93    3.69 
  -2   3  -1   25.30    0.66 
  -2   3  -1   25.96    0.67 
  -2   3  -1   29.35    0.70 
  -2   3  -1   25.94    0.65 
  -2   3  -1   28.10    0.82 
  -2   3  -1   27.76    0.81 
  -2   3  -1   24.35    0.80 
  -2   3   0   72.60    1.37 
  -2   3   0   72.14    1.36 
  -2   3   0   70.19    1.09 
  -2   3   1   73.46    1.43 
  -2   3   1   73.12    1.43 
  -2   3   1   71.57    1.16 
  -2   3   2   13.06    0.65 
  -2   3   2   13.51    0.65 
  -2   3   2   14.02    0.55 
  -2   3   2   11.98    0.47 
  -2   3   2   11.56    0.51 
  -2   3   3   89.57    1.37 
  -2   3   3   85.00    1.35 
  -2   3   3   84.38    1.35 
  -2   3   3   90.99    1.48 
  -2   3   4    7.42    0.59 
  -2   3   4    7.17    0.58 
  -2   3   4    5.99    0.53 
  -2   3   4    6.91    0.39 
  -2   3   4    7.52    0.50 
  -2   3   4    7.52    0.49 
  -2   3   5    7.49    0.67 
  -2   3   5    7.28    0.65 
  -2   3   5    7.83    0.49 
  -2   3   5    6.77    0.43 
  -2   3   5    7.58    0.46 
  -2   3   5    7.85    0.56 
  -2   3   5    8.09    0.56 
  -2   3   6   33.34    1.33 
  -2   3   6   31.92    1.30 
  -2   3   6   31.89    0.91 
  -2   3   6   31.07    1.01 
  -2   3   6   30.70    1.01 
  -2   3   6   31.95    0.90 
  -2   3   6   30.23    0.89 
  -2   3   7   54.27    1.26 
  -2   3   7   57.54    1.26 
  -2   3   8    3.69    0.48 
  -2   3   8    3.41    0.50 
  -2   3   9   29.42    0.91 
  -2   3   9   26.80    0.80 
  -2   3  10    0.36    0.33 
  -2   3  10    0.27    0.33 
  -2   4 -10    7.85    0.41 
  -2   4 -10    7.61    0.40 
  -2   4 -10    6.88    0.37 
  -2   4 -10    8.66    0.43 
  -2   4 -10    7.78    0.39 
  -2   4  -9   14.78    0.57 
  -2   4  -9   15.11    0.58 
  -2   4  -9   17.62    0.69 
  -2   4  -9   16.82    0.68 
  -2   4  -9   16.92    0.67 
  -2   4  -9   16.29    0.64 
  -2   4  -9   17.11    0.65 
  -2   4  -9   15.37    0.87 
  -2   4  -9   17.23    0.62 
  -2   4  -8    9.60    0.57 
  -2   4  -8    9.96    0.60 
  -2   4  -8    9.75    0.57 
  -2   4  -8    8.87    0.57 
  -2   4  -8   10.14    0.62 
  -2   4  -8   10.10    0.62 
  -2   4  -8    9.91    0.62 
  -2   4  -8   10.14    0.59 
  -2   4  -8    9.03    0.75 
  -2   4  -8    8.59    0.78 
  -2   4  -7    0.77    0.36 
  -2   4  -7    0.87    0.40 
  -2   4  -7    1.27    0.42 
  -2   4  -7    0.70    0.43 
  -2   4  -7    1.27    0.42 
  -2   4  -7    1.22    0.41 
  -2   4  -7    1.01    0.41 
  -2   4  -7    1.03    0.41 
  -2   4  -7    0.81    0.46 
  -2   4  -7    1.21    0.41 
  -2   4  -7    1.11    0.51 
  -2   4  -7    1.06    0.51 
  -2   4  -6    3.90    0.54 
  -2   4  -6    4.27    0.47 
  -2   4  -6    5.73    0.54 
  -2   4  -6    6.17    0.56 
  -2   4  -6    4.40    0.55 
  -2   4  -6    6.21    0.56 
  -2   4  -6    6.31    0.56 
  -2   4  -6    5.81    0.53 
  -2   4  -6    5.98    0.55 
  -2   4  -6    4.67    0.63 
  -2   4  -6    5.49    0.72 
  -2   4  -6    4.66    0.59 
  -2   4  -6    5.81    0.72 
  -2   4  -5    8.79    0.62 
  -2   4  -5   10.94    0.53 
  -2   4  -5   12.64    0.68 
  -2   4  -5   12.12    0.68 
  -2   4  -5   12.00    0.69 
  -2   4  -5   11.01    0.68 
  -2   4  -5   12.69    0.66 
  -2   4  -5   11.82    0.64 
  -2   4  -5   10.57    0.61 
  -2   4  -5   10.25    0.73 
  -2   4  -5   10.24    0.83 
  -2   4  -5   10.17    0.75 
  -2   4  -5   10.78    0.85 
  -2   4  -4    0.38    0.35 
  -2   4  -4    0.85    0.31 
  -2   4  -4    0.69    0.35 
  -2   4  -4    0.83    0.38 
  -2   4  -4    0.83    0.35 
  -2   4  -4    0.78    0.39 
  -2   4  -4    1.12    0.34 
  -2   4  -4    0.38    0.37 
  -2   4  -4    0.92    0.38 
  -2   4  -4    0.70    0.43 
  -2   4  -4    0.59    0.44 
  -2   4  -4    0.47    0.41 
  -2   4  -3   24.46    0.75 
  -2   4  -3   24.13    0.80 
  -2   4  -3   23.77    0.77 
  -2   4  -3   24.46    0.77 
  -2   4  -3   26.30    0.82 
  -2   4  -3   20.36    0.77 
  -2   4  -3   26.69    0.83 
  -2   4  -3   21.79    0.87 
  -2   4  -3   22.02    0.88 
  -2   4  -3   21.36    0.95 
  -2   4  -2    9.26    0.48 
  -2   4  -2    8.34    0.49 
  -2   4  -2    7.83    0.46 
  -2   4  -2    7.76    0.46 
  -2   4  -2    7.66    0.48 
  -2   4  -2    8.07    0.49 
  -2   4  -2    8.59    0.42 
  -2   4  -2    8.31    0.58 
  -2   4  -2    8.56    0.59 
  -2   4  -2    7.86    0.60 
  -2   4  -1   98.49    1.57 
  -2   4  -1  108.75    1.57 
  -2   4  -1   99.54    1.58 
  -2   4  -1  114.55    1.65 
  -2   4  -1   97.27    1.61 
  -2   4  -1  107.68    1.97 
  -2   4  -1  108.43    1.99 
  -2   4   0   14.07    0.55 
  -2   4   0   15.23    0.54 
  -2   4   0   13.65    0.53 
  -2   4   0   13.67    0.71 
  -2   4   0   13.66    0.71 
  -2   4   1   46.32    1.28 
  -2   4   1   47.17    1.29 
  -2   4   1   47.74    1.02 
  -2   4   1   46.70    1.02 
  -2   4   2   19.36    0.87 
  -2   4   2   18.14    0.84 
  -2   4   2   18.84    0.69 
  -2   4   2   19.15    0.70 
  -2   4   3    4.32    0.43 
  -2   4   3    2.98    0.50 
  -2   4   3    4.72    0.49 
  -2   4   3    4.80    0.39 
  -2   4   3    3.89    0.41 
  -2   4   3    4.29    0.43 
  -2   4   3    3.93    0.42 
  -2   4   4    0.37    0.39 
  -2   4   4    0.17    0.38 
  -2   4   4    0.11    0.46 
  -2   4   4    0.31    0.28 
  -2   4   4    0.22    0.39 
  -2   4   4    0.12    0.37 
  -2   4   4    0.46    0.43 
  -2   4   4   -0.09    0.37 
  -2   4   4   -0.11    0.40 
  -2   4   5   30.89    0.88 
  -2   4   5   29.82    1.23 
  -2   4   5   29.08    1.22 
  -2   4   5   31.44    0.99 
  -2   4   5   29.92    0.98 
  -2   4   6  157.44    2.24 
  -2   4   6  152.90    2.45 
  -2   4   6  153.38    2.45 
  -2   4   6  150.07    3.04 
  -2   4   6  150.84    3.03 
  -2   4   7   -0.45    0.43 
  -2   4   7    0.18    0.44 
  -2   4   7    0.20    0.49 
  -2   4   8   16.28    0.68 
  -2   4   8   17.96    0.74 
  -2   4   9   26.63    0.81 
  -2   4   9   25.20    0.73 
  -2   5 -10   14.44    0.42 
  -2   5  -9    5.52    0.38 
  -2   5  -9    5.20    0.37 
  -2   5  -9    5.09    0.34 
  -2   5  -9    5.49    0.36 
  -2   5  -9    5.53    0.42 
  -2   5  -9    4.91    0.38 
  -2   5  -8   38.85    0.97 
  -2   5  -8   39.95    0.98 
  -2   5  -8   36.64    0.91 
  -2   5  -8   37.10    0.92 
  -2   5  -8   38.05    0.97 
  -2   5  -7    4.75    0.48 
  -2   5  -7    4.84    0.48 
  -2   5  -7    4.29    0.47 
  -2   5  -7    4.71    0.49 
  -2   5  -7    4.80    0.48 
  -2   5  -7    4.89    0.43 
  -2   5  -7    4.58    0.49 
  -2   5  -7    3.19    0.58 
  -2   5  -6    0.44    0.39 
  -2   5  -6    0.26    0.36 
  -2   5  -6    0.27    0.40 
  -2   5  -6    0.32    0.36 
  -2   5  -6    0.35    0.40 
  -2   5  -6    0.46    0.38 
  -2   5  -6    0.44    0.42 
  -2   5  -6   -0.18    0.40 
  -2   5  -5    0.01    0.42 
  -2   5  -5   -0.03    0.37 
  -2   5  -5   -0.12    0.37 
  -2   5  -5   -0.01    0.37 
  -2   5  -5   -0.27    0.42 
  -2   5  -5    0.24    0.40 
  -2   5  -5    0.22    0.45 
  -2   5  -4   44.73    1.10 
  -2   5  -4   50.46    1.26 
  -2   5  -4   53.52    1.30 
  -2   5  -4   52.73    1.28 
  -2   5  -4   51.57    1.24 
  -2   5  -4   51.87    1.24 
  -2   5  -4   35.76    1.30 
  -2   5  -4   39.11    1.04 
  -2   5  -4   47.75    1.56 
  -2   5  -3   22.69    0.78 
  -2   5  -3   22.97    0.87 
  -2   5  -3   21.96    1.05 
  -2   5  -3   21.76    0.81 
  -2   5  -3   23.36    0.83 
  -2   5  -3   14.93    0.90 
  -2   5  -3   23.91    0.93 
  -2   5  -3   23.40    0.72 
  -2   5  -3   21.95    0.86 
  -2   5  -3   18.21    0.93 
  -2   5  -3   18.04    0.93 
  -2   5  -2   33.58    0.94 
  -2   5  -2   29.63    0.96 
  -2   5  -2   27.46    1.18 
  -2   5  -2   29.34    0.91 
  -2   5  -2   29.19    0.90 
  -2   5  -2   34.90    0.90 
  -2   5  -2   31.27    1.17 
  -2   5  -2   30.24    1.17 
  -2   5  -2   32.71    1.01 
  -2   5  -2   33.30    0.97 
  -2   5  -1    5.09    0.78 
  -2   5  -1    7.27    0.64 
  -2   5  -1    6.64    0.49 
  -2   5  -1    5.80    0.47 
  -2   5  -1    6.11    0.62 
  -2   5  -1    5.75    0.61 
  -2   5  -1    6.12    0.55 
  -2   5  -1    5.62    0.61 
  -2   5   0    0.17    0.29 
  -2   5   0    0.36    0.32 
  -2   5   0    0.36    0.33 
  -2   5   0    0.06    0.55 
  -2   5   0    0.27    0.33 
  -2   5   0    0.12    0.31 
  -2   5   0   -0.44    0.51 
  -2   5   0   -0.04    0.44 
  -2   5   0    0.24    0.38 
  -2   5   0    0.14    0.38 
  -2   5   1   55.39    1.21 
  -2   5   1   43.86    1.41 
  -2   5   1   51.41    1.22 
  -2   5   1   54.89    1.20 
  -2   5   1   52.59    1.16 
  -2   5   1   49.85    1.53 
  -2   5   1   47.76    1.51 
  -2   5   2    8.52    0.58 
  -2   5   2    7.42    0.50 
  -2   5   2    8.20    0.59 
  -2   5   2    9.63    0.74 
  -2   5   2    8.69    0.72 
  -2   5   3    1.73    0.38 
  -2   5   3    1.90    0.47 
  -2   5   3    2.24    0.53 
  -2   5   4   10.68    0.62 
  -2   5   4   10.76    0.62 
  -2   5   4   11.95    0.74 
  -2   5   4   11.71    0.63 
  -2   5   4   11.52    0.74 
  -2   5   4   11.09    0.85 
  -2   5   4   11.72    0.85 
  -2   5   4   14.17    0.76 
  -2   5   5   -0.33    0.58 
  -2   5   5    0.57    0.47 
  -2   5   5   -0.01    0.37 
  -2   5   5    0.03    0.55 
  -2   5   5    0.32    0.43 
  -2   5   5   -0.18    0.44 
  -2   5   5    0.07    0.50 
  -2   5   5   -0.16    0.51 
  -2   5   6    3.77    0.47 
  -2   5   6    3.70    0.59 
  -2   5   6    2.21    0.49 
  -2   5   7    0.12    0.34 
  -2   5   7    0.02    0.55 
  -2   5   7   -0.14    0.43 
  -2   5   8    1.54    0.35 
  -2   5   8    2.94    0.72 
  -2   5   9    1.88    0.29 
  -2   6  -9    0.07    0.19 
  -2   6  -8    3.57    0.32 
  -2   6  -8    4.17    0.36 
  -2   6  -8    3.83    0.34 
  -2   6  -8    3.72    0.32 
  -2   6  -8    3.83    0.35 
  -2   6  -7   12.70    0.58 
  -2   6  -7   12.88    0.58 
  -2   6  -7   12.48    0.59 
  -2   6  -7   12.32    0.58 
  -2   6  -7   12.96    0.60 
  -2   6  -6    1.29    0.39 
  -2   6  -6    1.65    0.40 
  -2   6  -6    1.01    0.35 
  -2   6  -6    0.94    0.36 
  -2   6  -6    1.21    0.38 
  -2   6  -6    1.21    0.35 
  -2   6  -6    0.68    0.42 
  -2   6  -5    2.95    0.45 
  -2   6  -5    3.40    0.50 
  -2   6  -5    2.68    0.57 
  -2   6  -5    2.93    0.45 
  -2   6  -4    4.61    0.50 
  -2   6  -4    4.18    0.50 
  -2   6  -4    3.73    0.42 
  -2   6  -3   14.37    0.69 
  -2   6  -3   14.04    0.70 
  -2   6  -2    4.24    0.55 
  -2   6  -2    4.98    0.59 
  -2   6  -2    3.61    0.53 
  -2   6  -2    4.37    0.47 
  -2   6  -2    3.81    0.47 
  -2   6  -2    4.52    0.68 
  -2   6  -2    2.93    0.57 
  -2   6  -2    3.69    0.58 
  -2   6  -1    0.20    0.37 
  -2   6  -1    0.25    0.39 
  -2   6  -1    0.07    0.48 
  -2   6  -1   -0.25    0.60 
  -2   6  -1   -0.01    0.49 
  -2   6  -1    0.25    0.38 
  -2   6  -1    0.06    0.38 
  -2   6  -1   -0.44    0.75 
  -2   6  -1    0.24    0.61 
  -2   6  -1    0.09    0.44 
  -2   6  -1   -0.05    0.42 
  -2   6   0   12.55    0.70 
  -2   6   0   12.57    0.62 
  -2   6   0   10.48    0.66 
  -2   6   0   13.22    0.81 
  -2   6   0   10.26    0.66 
  -2   6   0   13.69    0.74 
  -2   6   0   12.80    0.92 
  -2   6   0   12.12    0.90 
  -2   6   0   14.66    0.99 
  -2   6   0   13.63    0.83 
  -2   6   1    0.13    0.37 
  -2   6   1   -0.33    0.58 
  -2   6   1    0.01    0.40 
  -2   6   1    0.12    0.45 
  -2   6   1    0.20    0.43 
  -2   6   1    0.15    0.57 
  -2   6   1    0.08    0.63 
  -2   6   1    0.11    0.37 
  -2   6   2    0.75    0.42 
  -2   6   2    0.60    0.55 
  -2   6   2    0.66    0.42 
  -2   6   2    0.49    0.60 
  -2   6   2    0.61    0.48 
  -2   6   2    0.15    0.45 
  -2   6   2    0.77    0.48 
  -2   6   3    2.00    0.50 
  -2   6   3    1.47    0.53 
  -2   6   4   27.01    1.03 
  -2   6   4   25.65    0.89 
  -2   6   4   26.66    0.99 
  -2   6   5    0.71    0.37 
  -2   6   6    1.00    0.37 
  -2   6   7    3.39    0.40 
  -2   6   9   26.82    0.58 
  -2   7  -8   17.72    0.43 
  -2   7  -7    0.42    0.24 
  -2   7  -7    0.58    0.24 
  -2   7  -7    0.71    0.28 
  -2   7  -6    4.16    0.41 
  -2   7  -5    4.76    0.44 
  -2   7  -5    5.41    0.48 
  -2   7  -3   14.32    0.72 
  -2   7  -3   14.62    0.72 
  -2   7  -2  209.94    3.11 
  -2   7  -2  230.89    3.22 
  -2   7  -2  265.01    3.09 
  -2   7  -2  250.37    3.17 
  -2   7  -2  233.55    3.22 
  -2   7  -1   89.85    1.62 
  -2   7  -1   86.19    1.61 
  -2   7  -1   74.13    1.60 
  -2   7  -1   47.90    1.51 
  -2   7  -1   61.14    1.27 
  -2   7   0   10.68    0.67 
  -2   7   0   11.62    0.79 
  -2   7   1    2.72    0.43 
  -2   7   1    1.92    0.56 
  -2   7   1    3.70    0.63 
  -2   7   1    3.30    0.63 
  -2   7   1    4.00    0.77 
  -2   7   2    3.16    0.47 
  -2   7   2    3.15    0.56 
  -2   7   2    3.68    0.62 
  -2   7   2    4.26    0.74 
  -2   7   3   33.59    1.05 
  -2   7   3   39.20    1.16 
  -2   7   3   41.37    1.26 
  -2   7   3   40.77    1.13 
  -2   7   3   31.34    1.03 
  -2   7   4    0.18    0.55 
  -2   7   4    0.76    0.60 
  -2   7   4    0.80    0.54 
  -2   7   4    0.41    0.50 
  -2   7   5   32.73    0.99 
  -2   7   5   35.56    1.08 
  -2   7   6   27.24    0.89 
  -2   7   6   25.59    0.85 
  -2   7   7   14.71    0.60 
  -2   8  -5    0.07    0.21 
  -2   8  -4    8.90    0.48 
  -2   8   0    1.80    0.53 
  -2   8   0    1.21    0.46 
  -2   8   1    3.98    0.57 
  -2   8   1    3.38    0.51 
  -2   8   2   10.19    0.66 
  -2   8   2   10.37    0.62 
  -2   8   3    0.17    0.48 
  -2   8   3    0.23    0.42 
  -2   8   4    9.49    0.56 
  -2   8   5    0.54    0.37 
  -2   8   6    6.57    0.34 
  -2   9  -3    1.75    0.21 
  -2   9  -2    6.83    0.36 
  -1  -9  -5    0.08    0.28 
  -1  -9  -4    0.14    0.36 
  -1  -9  -3    3.79    0.36 
  -1  -9  -3    3.85    0.34 
  -1  -9  -3    4.10    0.35 
  -1  -9  -2    0.38    0.28 
  -1  -9  -2    0.46    0.28 
  -1  -9  -2    0.41    0.27 
  -1  -9  -1    1.77    0.35 
  -1  -9  -1    1.54    0.31 
  -1  -9  -1    1.58    0.28 
  -1  -9  -1    1.88    0.30 
  -1  -9   0    1.27    0.30 
  -1  -9   0    1.72    0.31 
  -1  -9   0    1.37    0.35 
  -1  -9   0    1.32    0.34 
  -1  -9   0    1.60    0.32 
  -1  -9   1    0.59    0.28 
  -1  -9   1    0.58    0.30 
  -1  -9   1    0.29    0.32 
  -1  -9   1    0.64    0.29 
  -1  -9   1    0.71    0.29 
  -1  -9   2    4.41    0.33 
  -1  -9   2    4.63    0.37 
  -1  -9   2    5.00    0.39 
  -1  -9   3    7.51    0.38 
  -1  -9   3    9.04    0.41 
  -1  -9   5    3.70    0.20 
  -1  -9   5    1.33    0.19 
  -1  -8  -6   10.44    0.50 
  -1  -8  -6   10.73    0.44 
  -1  -8  -6    9.47    0.46 
  -1  -8  -5   95.37    1.48 
  -1  -8  -5   96.40    1.49 
  -1  -8  -5  101.75    1.66 
  -1  -8  -5   88.41    1.99 
  -1  -8  -5   94.50    1.63 
  -1  -8  -5   95.17    1.36 
  -1  -8  -4    6.05    0.50 
  -1  -8  -4    5.95    0.67 
  -1  -8  -4    6.67    0.50 
  -1  -8  -4    6.01    0.49 
  -1  -8  -4    5.83    0.48 
  -1  -8  -4    5.19    0.55 
  -1  -8  -4    5.45    0.55 
  -1  -8  -3   18.71    0.73 
  -1  -8  -3   19.98    0.79 
  -1  -8  -3   19.92    0.79 
  -1  -8  -3   17.88    0.96 
  -1  -8  -3   17.73    0.93 
  -1  -8  -3   16.62    0.91 
  -1  -8  -3   18.06    0.65 
  -1  -8  -2    0.03    0.62 
  -1  -8  -2    0.47    0.42 
  -1  -8  -2    0.45    0.54 
  -1  -8  -2   -0.44    0.58 
  -1  -8  -2    0.65    0.54 
  -1  -8  -2    0.28    0.30 
  -1  -8  -2    0.41    0.34 
  -1  -8  -2    0.67    0.38 
  -1  -8  -2    0.30    0.36 
  -1  -8  -2    0.27    0.40 
  -1  -8  -2    0.78    0.40 
  -1  -8  -2    0.04    0.36 
  -1  -8  -1    0.10    0.60 
  -1  -8  -1    0.30    0.40 
  -1  -8  -1   -0.08    0.51 
  -1  -8  -1   -0.08    0.55 
  -1  -8  -1    0.10    0.52 
  -1  -8  -1    0.12    0.33 
  -1  -8  -1    0.30    0.35 
  -1  -8  -1   -0.02    0.41 
  -1  -8  -1    0.13    0.38 
  -1  -8   0   23.16    0.75 
  -1  -8   0   27.87    0.91 
  -1  -8   0   28.05    0.91 
  -1  -8   0   22.87    1.17 
  -1  -8   0   20.73    1.10 
  -1  -8   0   21.50    1.15 
  -1  -8   0    5.06    0.90 
  -1  -8   0    4.92    0.91 
  -1  -8   1   11.83    0.59 
  -1  -8   1   10.32    0.75 
  -1  -8   1   12.47    0.66 
  -1  -8   1   11.67    0.65 
  -1  -8   1   10.73    0.58 
  -1  -8   1    5.83    0.68 
  -1  -8   1    6.09    0.69 
  -1  -8   1    8.67    0.79 
  -1  -8   1    9.57    0.81 
  -1  -8   1    9.39    0.81 
  -1  -8   1   10.63    0.75 
  -1  -8   1   11.69    0.67 
  -1  -8   1    8.32    0.65 
  -1  -8   2   33.00    0.86 
  -1  -8   2   34.34    1.29 
  -1  -8   2   35.21    0.95 
  -1  -8   2   20.97    0.98 
  -1  -8   2   21.21    0.99 
  -1  -8   2   35.70    1.25 
  -1  -8   2   34.41    1.34 
  -1  -8   2   33.20    1.31 
  -1  -8   2   25.08    1.00 
  -1  -8   2   28.21    1.21 
  -1  -8   2   26.31    1.20 
  -1  -8   2   36.92    0.97 
  -1  -8   3    1.78    0.37 
  -1  -8   3    1.90    0.33 
  -1  -8   3    2.03    0.48 
  -1  -8   3    1.74    0.47 
  -1  -8   3    1.62    0.40 
  -1  -8   3    1.47    0.45 
  -1  -8   3    1.80    0.46 
  -1  -8   3    2.02    0.44 
  -1  -8   4    6.37    0.62 
  -1  -8   4    7.07    0.63 
  -1  -8   4    8.46    0.47 
  -1  -8   4    8.98    0.51 
  -1  -8   4    7.14    0.47 
  -1  -8   5   26.46    0.74 
  -1  -8   5   24.06    0.67 
  -1  -8   5   26.73    0.70 
  -1  -8   5   25.75    0.69 
  -1  -8   6    0.56    0.22 
  -1  -8   6    0.34    0.21 
  -1  -8   6    0.41    0.21 
  -1  -8   6    0.33    0.20 
  -1  -8   6    0.30    0.23 
  -1  -8   7   11.69    0.33 
  -1  -8   7   11.47    0.34 
  -1  -7  -9    0.08    0.17 
  -1  -7  -8    0.10    0.29 
  -1  -7  -7   10.47    0.53 
  -1  -7  -7   10.55    0.55 
  -1  -7  -7    9.35    0.50 
  -1  -7  -6   27.04    0.93 
  -1  -7  -6   28.18    0.87 
  -1  -7  -6   27.80    0.89 
  -1  -7  -6   25.97    0.69 
  -1  -7  -6   27.51    0.81 
  -1  -7  -5   87.04    1.40 
  -1  -7  -5   90.47    1.54 
  -1  -7  -5   87.06    2.20 
  -1  -7  -5  104.11    2.75 
  -1  -7  -5   97.37    1.65 
  -1  -7  -5   96.31    1.64 
  -1  -7  -5   92.35    1.63 
  -1  -7  -5   94.11    1.76 
  -1  -7  -4   24.45    1.08 
  -1  -7  -4   35.06    0.89 
  -1  -7  -4   35.66    1.00 
  -1  -7  -4   29.85    1.33 
  -1  -7  -4   33.53    1.69 
  -1  -7  -4   36.64    1.81 
  -1  -7  -4   36.18    1.71 
  -1  -7  -4   28.80    1.07 
  -1  -7  -4   33.84    1.03 
  -1  -7  -4   33.59    1.04 
  -1  -7  -4   31.21    0.95 
  -1  -7  -4   30.71    1.24 
  -1  -7  -4   30.93    1.23 
  -1  -7  -3    7.14    0.81 
  -1  -7  -3    7.71    0.50 
  -1  -7  -3    8.15    0.51 
  -1  -7  -3    8.01    0.60 
  -1  -7  -3    4.66    0.62 
  -1  -7  -3    9.39    1.07 
  -1  -7  -3    8.47    1.10 
  -1  -7  -3    7.92    0.78 
  -1  -7  -3    7.87    0.73 
  -1  -7  -3    8.36    0.73 
  -1  -7  -3    7.97    0.57 
  -1  -7  -3    7.71    0.62 
  -1  -7  -2   10.57    0.67 
  -1  -7  -2    8.71    0.84 
  -1  -7  -2    9.93    0.59 
  -1  -7  -2    8.88    0.60 
  -1  -7  -2   10.11    0.59 
  -1  -7  -2    3.96    0.67 
  -1  -7  -2    3.80    0.69 
  -1  -7  -2    9.80    0.79 
  -1  -7  -2    9.81    0.65 
  -1  -7  -2   11.75    1.11 
  -1  -7  -2   10.51    1.09 
  -1  -7  -2   10.33    0.82 
  -1  -7  -2   10.66    0.82 
  -1  -7  -1   15.00    0.97 
  -1  -7  -1   18.03    1.04 
  -1  -7  -1   17.27    1.02 
  -1  -7  -1   13.94    0.86 
  -1  -7  -1   19.15    0.79 
  -1  -7  -1   18.70    0.78 
  -1  -7  -1   15.87    0.66 
  -1  -7  -1   20.21    1.29 
  -1  -7  -1   17.88    1.12 
  -1  -7  -1   20.53    1.31 
  -1  -7  -1   20.05    0.86 
  -1  -7  -1   16.38    0.97 
  -1  -7  -1   18.19    0.98 
  -1  -7  -1   17.98    0.75 
  -1  -7  -1   16.26    1.03 
  -1  -7   0    5.74    0.70 
  -1  -7   0    5.96    0.54 
  -1  -7   0    4.68    0.62 
  -1  -7   0    5.69    0.49 
  -1  -7   0    3.49    0.57 
  -1  -7   0    3.39    0.55 
  -1  -7   0    6.27    0.86 
  -1  -7   0    5.63    0.84 
  -1  -7   0    5.65    0.76 
  -1  -7   0    5.26    0.62 
  -1  -7   0    5.16    0.61 
  -1  -7   0    5.76    0.67 
  -1  -7   0    5.27    0.76 
  -1  -7   1   39.96    1.05 
  -1  -7   1   47.99    1.20 
  -1  -7   1   43.19    1.50 
  -1  -7   1   45.83    1.13 
  -1  -7   1   32.60    1.21 
  -1  -7   1   34.24    1.23 
  -1  -7   1   51.77    1.29 
  -1  -7   1   53.51    1.32 
  -1  -7   1   45.48    1.65 
  -1  -7   1   41.29    1.50 
  -1  -7   1   45.99    1.64 
  -1  -7   1   41.74    1.44 
  -1  -7   1   45.21    1.16 
  -1  -7   1   37.02    1.36 
  -1  -7   2   11.68    0.63 
  -1  -7   2   11.41    0.60 
  -1  -7   2   13.15    0.90 
  -1  -7   2   12.65    0.65 
  -1  -7   2    7.17    0.68 
  -1  -7   2    7.97    0.70 
  -1  -7   2   11.36    0.88 
  -1  -7   2   12.69    0.87 
  -1  -7   2   13.07    0.72 
  -1  -7   2   13.13    0.91 
  -1  -7   2   12.61    0.89 
  -1  -7   2   10.10    0.77 
  -1  -7   3    7.85    0.54 
  -1  -7   3    8.81    0.76 
  -1  -7   3    8.74    0.57 
  -1  -7   3    8.37    0.53 
  -1  -7   3    7.68    0.53 
  -1  -7   3    8.00    0.74 
  -1  -7   3    9.11    0.76 
  -1  -7   3    8.85    0.73 
  -1  -7   3    6.34    0.64 
  -1  -7   3    6.94    0.72 
  -1  -7   3    9.02    0.62 
  -1  -7   4    6.47    0.69 
  -1  -7   4    6.84    0.67 
  -1  -7   4    2.62    0.56 
  -1  -7   4    2.44    0.55 
  -1  -7   4    5.34    0.65 
  -1  -7   4    8.11    0.59 
  -1  -7   4    7.08    0.69 
  -1  -7   4    6.46    0.64 
  -1  -7   4    7.73    0.66 
  -1  -7   4    6.36    0.63 
  -1  -7   4    7.70    0.52 
  -1  -7   5    0.64    0.31 
  -1  -7   5    0.26    0.39 
  -1  -7   5    0.17    0.32 
  -1  -7   5    0.06    0.34 
  -1  -7   5    0.32    0.37 
  -1  -7   5    0.56    0.41 
  -1  -7   5    0.63    0.40 
  -1  -7   5    0.64    0.31 
  -1  -7   6   45.99    1.07 
  -1  -7   6   39.83    1.36 
  -1  -7   6   45.34    1.01 
  -1  -7   6   37.03    1.22 
  -1  -7   6   43.11    1.34 
  -1  -7   6   38.13    0.91 
  -1  -7   6   43.98    0.97 
  -1  -7   7    0.07    0.25 
  -1  -7   7    0.30    0.24 
  -1  -7   7    0.18    0.22 
  -1  -7   7    0.05    0.21 
  -1  -7   8    8.89    0.34 
  -1  -6 -10    9.85    0.34 
  -1  -6  -9    1.05    0.35 
  -1  -6  -9    0.88    0.29 
  -1  -6  -8   31.70    0.94 
  -1  -6  -8   31.35    0.71 
  -1  -6  -8   35.13    0.90 
  -1  -6  -8   29.54    1.17 
  -1  -6  -8   33.33    0.84 
  -1  -6  -8   31.39    0.91 
  -1  -6  -7   41.35    0.90 
  -1  -6  -7   45.55    1.11 
  -1  -6  -7   42.97    1.47 
  -1  -6  -7   44.06    1.10 
  -1  -6  -6    0.58    0.41 
  -1  -6  -6    0.01    0.53 
  -1  -6  -6    1.66    2.32 
  -1  -6  -6   -0.01    0.36 
  -1  -6  -6    0.38    0.46 
  -1  -6  -6    0.86    0.74 
  -1  -6  -5  160.83    2.19 
  -1  -6  -5  177.38    2.45 
  -1  -6  -5  178.39    2.48 
  -1  -6  -5  164.53    2.65 
  -1  -6  -5  172.14    3.42 
  -1  -6  -5  180.71    2.68 
  -1  -6  -5  177.00    2.47 
  -1  -6  -5  179.04    2.47 
  -1  -6  -5  159.41    2.85 
  -1  -6  -5  157.63    2.82 
  -1  -6  -5  146.89    3.08 
  -1  -6  -5  162.65    3.19 
  -1  -6  -4   25.45    0.79 
  -1  -6  -4   26.10    0.91 
  -1  -6  -4   26.84    1.20 
  -1  -6  -4   26.40    1.34 
  -1  -6  -4    4.64    3.53 
  -1  -6  -4    6.72    3.50 
  -1  -6  -4   17.21    2.57 
  -1  -6  -4   26.65    0.95 
  -1  -6  -4   27.05    0.91 
  -1  -6  -4   26.94    0.91 
  -1  -6  -4   26.00    0.95 
  -1  -6  -4   25.19    1.10 
  -1  -6  -4   25.40    1.09 
  -1  -6  -3    0.49    0.44 
  -1  -6  -3    0.34    0.49 
  -1  -6  -3    0.22    0.42 
  -1  -6  -3    0.26    2.85 
  -1  -6  -3    4.00    2.91 
  -1  -6  -3   -1.66    1.66 
  -1  -6  -3    0.30    0.36 
  -1  -6  -3    0.31    0.35 
  -1  -6  -3    0.18    2.02 
  -1  -6  -3    0.04    0.37 
  -1  -6  -3    0.19    0.37 
  -1  -6  -3    1.04    0.62 
  -1  -6  -2    0.39    0.41 
  -1  -6  -2    0.63    0.53 
  -1  -6  -2    0.32    0.31 
  -1  -6  -2    0.37    0.33 
  -1  -6  -2    0.39    0.36 
  -1  -6  -2    0.77    0.34 
  -1  -6  -2    0.45    0.40 
  -1  -6  -2    0.49    0.39 
  -1  -6  -2   -0.53    1.33 
  -1  -6  -2    0.43    0.38 
  -1  -6  -2    0.17    1.62 
  -1  -6  -2    2.29    1.61 
  -1  -6  -2    0.38    0.42 
  -1  -6  -2    0.30    0.46 
  -1  -6  -1    0.30    0.43 
  -1  -6  -1   -0.11    0.47 
  -1  -6  -1    0.42    0.35 
  -1  -6  -1    0.17    0.31 
  -1  -6  -1    0.55    0.36 
  -1  -6  -1    0.45    0.32 
  -1  -6  -1    0.41    0.34 
  -1  -6  -1    0.86    0.92 
  -1  -6  -1    0.66    0.90 
  -1  -6  -1   -0.17    0.63 
  -1  -6  -1    0.43    0.39 
  -1  -6  -1   -0.15    0.48 
  -1  -6  -1    0.01    0.70 
  -1  -6  -1    0.16    0.36 
  -1  -6  -1    0.56    0.40 
  -1  -6   0   84.88    1.94 
  -1  -6   0   82.95    1.88 
  -1  -6   0   79.94    1.43 
  -1  -6   0   85.72    1.53 
  -1  -6   0   86.15    1.55 
  -1  -6   0   82.35    2.01 
  -1  -6   0  105.24    2.43 
  -1  -6   0  107.89    2.47 
  -1  -6   0   81.15    1.80 
  -1  -6   0   81.32    1.59 
  -1  -6   0   80.34    1.42 
  -1  -6   0   89.49    2.03 
  -1  -6   1   34.45    1.25 
  -1  -6   1   31.97    0.88 
  -1  -6   1   31.89    1.19 
  -1  -6   1   34.77    0.96 
  -1  -6   1   32.98    0.95 
  -1  -6   1   32.25    0.89 
  -1  -6   1   36.84    1.02 
  -1  -6   1   37.02    1.03 
  -1  -6   1   31.79    1.22 
  -1  -6   1   38.04    1.46 
  -1  -6   1   39.06    1.47 
  -1  -6   1   30.96    1.14 
  -1  -6   1   30.50    1.01 
  -1  -6   1   31.75    1.12 
  -1  -6   2   35.83    1.29 
  -1  -6   2   35.75    1.27 
  -1  -6   2   33.00    1.20 
  -1  -6   2   35.33    1.26 
  -1  -6   2   33.89    0.93 
  -1  -6   2   37.37    1.00 
  -1  -6   2   38.12    1.02 
  -1  -6   2   37.63    0.99 
  -1  -6   2   32.37    1.23 
  -1  -6   2   33.41    1.21 
  -1  -6   2   28.20    1.19 
  -1  -6   3    0.95    0.47 
  -1  -6   3    1.05    0.40 
  -1  -6   3    1.12    0.41 
  -1  -6   3    1.19    0.33 
  -1  -6   3    1.08    0.41 
  -1  -6   3    0.94    0.34 
  -1  -6   3    1.11    0.36 
  -1  -6   3    0.64    0.36 
  -1  -6   3    0.97    0.35 
  -1  -6   3    0.84    0.33 
  -1  -6   3    0.98    0.52 
  -1  -6   3    0.62    0.43 
  -1  -6   3    1.04    0.36 
  -1  -6   4    1.90    0.45 
  -1  -6   4    2.99    0.41 
  -1  -6   4    2.69    0.42 
  -1  -6   4    2.46    0.34 
  -1  -6   4    1.09    0.39 
  -1  -6   4    2.19    0.53 
  -1  -6   4    3.21    0.56 
  -1  -6   4    1.91    0.51 
  -1  -6   4    2.32    0.48 
  -1  -6   4    2.53    0.50 
  -1  -6   4    2.69    0.46 
  -1  -6   4    2.60    0.45 
  -1  -6   5    1.31    0.39 
  -1  -6   5    1.68    0.46 
  -1  -6   5    1.26    0.38 
  -1  -6   5    0.60    0.35 
  -1  -6   5    1.15    0.45 
  -1  -6   5    1.07    0.39 
  -1  -6   5    1.27    0.36 
  -1  -6   5    1.37    0.37 
  -1  -6   5    1.00    0.31 
  -1  -6   5    1.69    0.50 
  -1  -6   5    1.92    0.48 
  -1  -6   5    1.01    0.39 
  -1  -6   5    1.95    0.46 
  -1  -6   6   12.52    0.80 
  -1  -6   6   12.56    0.83 
  -1  -6   6   12.04    0.83 
  -1  -6   6   14.11    0.63 
  -1  -6   6   13.18    0.57 
  -1  -6   6   12.92    0.57 
  -1  -6   6   13.99    0.64 
  -1  -6   6   11.27    0.81 
  -1  -6   6   14.91    0.67 
  -1  -6   6   14.17    0.62 
  -1  -6   7    0.33    0.35 
  -1  -6   7    0.05    0.29 
  -1  -6   7    0.18    0.26 
  -1  -6   7    0.10    0.38 
  -1  -6   7   -0.39    0.40 
  -1  -6   7   -0.20    0.39 
  -1  -6   7    0.52    0.37 
  -1  -6   7   -0.06    0.28 
  -1  -6   7    0.22    0.27 
  -1  -6   8    2.33    0.31 
  -1  -6   8    2.09    0.28 
  -1  -6   8    2.19    0.31 
  -1  -6   9    0.91    0.21 
  -1  -6   9    0.79    0.21 
  -1  -6  10    4.14    0.20 
  -1  -5 -10    4.45    0.41 
  -1  -5 -10    4.30    0.36 
  -1  -5 -10    4.20    0.32 
  -1  -5  -9    5.97    0.62 
  -1  -5  -9    6.53    0.49 
  -1  -5  -8   39.67    1.00 
  -1  -5  -8   34.43    1.00 
  -1  -5  -8   40.28    1.09 
  -1  -5  -8   33.32    0.99 
  -1  -5  -8   29.84    1.16 
  -1  -5  -8   40.33    1.39 
  -1  -5  -7   14.71    0.72 
  -1  -5  -7   14.77    0.75 
  -1  -5  -7   12.09    0.86 
  -1  -5  -7   12.88    0.91 
  -1  -5  -7   16.59    0.97 
  -1  -5  -7   15.49    0.69 
  -1  -5  -7   16.76    1.41 
  -1  -5  -6   10.22    1.27 
  -1  -5  -6    8.23    0.79 
  -1  -5  -6    8.41    0.58 
  -1  -5  -6   10.00    0.80 
  -1  -5  -6    8.56    0.74 
  -1  -5  -6   10.35    0.63 
  -1  -5  -5    4.74    0.53 
  -1  -5  -5    4.29    0.50 
  -1  -5  -5    3.74    0.42 
  -1  -5  -5    4.16    0.43 
  -1  -5  -5    5.13    0.98 
  -1  -5  -5    3.97    0.59 
  -1  -5  -5    4.30    0.61 
  -1  -5  -5    3.84    0.46 
  -1  -5  -4   29.10    0.88 
  -1  -5  -4   30.20    1.37 
  -1  -5  -4   28.83    0.88 
  -1  -5  -4   29.68    0.83 
  -1  -5  -4   29.94    0.85 
  -1  -5  -4   29.27    1.12 
  -1  -5  -4   28.27    1.02 
  -1  -5  -4   29.14    1.04 
  -1  -5  -3   66.95    1.79 
  -1  -5  -3   69.56    1.27 
  -1  -5  -3   71.59    1.30 
  -1  -5  -3   70.95    1.58 
  -1  -5  -3   67.73    1.54 
  -1  -5  -3   70.18    1.60 
  -1  -5  -2   30.10    0.99 
  -1  -5  -2   29.96    0.79 
  -1  -5  -2   29.85    0.80 
  -1  -5  -2    0.80    2.53 
  -1  -5  -2    1.50    2.47 
  -1  -5  -2   27.53    1.07 
  -1  -5  -2   29.77    1.00 
  -1  -5  -2   29.46    0.99 
  -1  -5  -2   27.50    0.86 
  -1  -5  -2   29.72    1.05 
  -1  -5  -1    1.84    0.29 
  -1  -5  -1    1.71    0.29 
  -1  -5  -1    1.88    0.38 
  -1  -5  -1    0.83    0.89 
  -1  -5  -1    1.31    1.77 
  -1  -5  -1    1.34    1.80 
  -1  -5  -1    1.91    0.48 
  -1  -5  -1    1.67    0.35 
  -1  -5  -1    1.25    1.16 
  -1  -5  -1    2.15    0.36 
  -1  -5   0  194.90    2.41 
  -1  -5   0  198.27    2.85 
  -1  -5   0  188.75    2.44 
  -1  -5   0  184.44    2.37 
  -1  -5   0  190.76    2.46 
  -1  -5   0  209.26    2.95 
  -1  -5   0  302.40    4.10 
  -1  -5   0  316.62    4.21 
  -1  -5   0  197.55    3.14 
  -1  -5   0  191.20    2.80 
  -1  -5   0  194.42    2.78 
  -1  -5   0  234.54    3.30 
  -1  -5   1   22.31    0.95 
  -1  -5   1   17.33    0.77 
  -1  -5   1   17.02    0.58 
  -1  -5   1   21.58    0.70 
  -1  -5   1   21.80    0.71 
  -1  -5   1   18.00    0.59 
  -1  -5   1   25.07    1.14 
  -1  -5   1   16.51    0.91 
  -1  -5   1   17.37    0.68 
  -1  -5   1   25.74    1.16 
  -1  -5   1   16.88    0.68 
  -1  -5   1   17.61    0.77 
  -1  -5   1   15.76    0.75 
  -1  -5   2   40.53    1.18 
  -1  -5   2   39.96    1.18 
  -1  -5   2   42.92    1.24 
  -1  -5   2   38.35    0.90 
  -1  -5   2   39.59    1.17 
  -1  -5   2   37.09    0.87 
  -1  -5   2   41.84    0.95 
  -1  -5   2   42.29    0.96 
  -1  -5   2   37.03    0.96 
  -1  -5   2   41.76    1.00 
  -1  -5   2   39.94    1.16 
  -1  -5   2   33.95    1.13 
  -1  -5   3   73.18    1.34 
  -1  -5   3   68.88    1.69 
  -1  -5   3   75.59    1.35 
  -1  -5   3   75.10    1.36 
  -1  -5   3   71.69    1.29 
  -1  -5   3   73.92    1.31 
  -1  -5   3   76.85    1.64 
  -1  -5   3   76.96    1.76 
  -1  -5   3   77.04    1.69 
  -1  -5   3   73.54    1.42 
  -1  -5   3   72.90    1.41 
  -1  -5   3   74.60    1.73 
  -1  -5   3   73.50    1.62 
  -1  -5   3   76.42    1.70 
  -1  -5   3   73.24    1.61 
  -1  -5   4   26.30    0.80 
  -1  -5   4   25.78    1.03 
  -1  -5   4   25.65    0.77 
  -1  -5   4   26.00    0.78 
  -1  -5   4   25.62    0.78 
  -1  -5   4   27.42    1.06 
  -1  -5   4   24.58    0.83 
  -1  -5   4   25.67    1.04 
  -1  -5   4   25.20    0.83 
  -1  -5   4   26.58    1.00 
  -1  -5   4   25.06    0.99 
  -1  -5   4   25.06    0.93 
  -1  -5   4   25.03    0.94 
  -1  -5   4   25.34    1.02 
  -1  -5   5   26.16    1.07 
  -1  -5   5   27.91    1.15 
  -1  -5   5   25.41    1.06 
  -1  -5   5   29.16    1.12 
  -1  -5   5   26.40    0.82 
  -1  -5   5   26.59    0.84 
  -1  -5   5   26.82    1.13 
  -1  -5   5   29.08    1.13 
  -1  -5   5   22.58    1.08 
  -1  -5   5   27.03    1.10 
  -1  -5   5   24.53    1.11 
  -1  -5   6    0.58    0.32 
  -1  -5   6    0.42    0.40 
  -1  -5   6    0.46    0.38 
  -1  -5   6    0.37    0.31 
  -1  -5   6    0.28    0.27 
  -1  -5   6    0.55    0.30 
  -1  -5   6    0.43    0.28 
  -1  -5   6    0.42    0.28 
  -1  -5   6    0.13    0.41 
  -1  -5   6    0.14    0.41 
  -1  -5   6    0.46    0.40 
  -1  -5   6    0.43    0.39 
  -1  -5   6    0.25    0.41 
  -1  -5   6    0.37    0.32 
  -1  -5   7    0.48    0.29 
  -1  -5   7    0.51    0.36 
  -1  -5   7    0.32    0.30 
  -1  -5   7    0.51    0.28 
  -1  -5   7    0.44    0.29 
  -1  -5   7    0.50    0.40 
  -1  -5   7    0.71    0.42 
  -1  -5   7    0.77    0.40 
  -1  -5   7    0.36    0.30 
  -1  -5   7    0.47    0.32 
  -1  -5   7    0.15    0.40 
  -1  -5   7    0.35    0.37 
  -1  -5   8    6.73    0.47 
  -1  -5   8    6.74    0.46 
  -1  -5   8    6.03    0.45 
  -1  -5   8    6.28    0.62 
  -1  -5   8    5.39    0.42 
  -1  -5   8    7.22    0.43 
  -1  -5   9   54.41    1.47 
  -1  -5   9   56.43    0.97 
  -1  -5   9   60.21    1.04 
  -1  -5   9   51.76    1.12 
  -1  -5   9   56.70    1.09 
  -1  -5  10    2.07    0.25 
  -1  -4 -10    5.10    0.43 
  -1  -4 -10    5.10    0.56 
  -1  -4  -9    9.88    0.61 
  -1  -4  -9   10.07    0.60 
  -1  -4  -9    9.39    0.61 
  -1  -4  -9    8.39    0.70 
  -1  -4  -9   10.70    0.80 
  -1  -4  -9   10.96    0.62 
  -1  -4  -8    0.78    0.33 
  -1  -4  -8    0.41    0.41 
  -1  -4  -8    0.30    0.37 
  -1  -4  -8    0.42    0.38 
  -1  -4  -8    0.70    0.40 
  -1  -4  -8    0.33    0.42 
  -1  -4  -8    0.94    1.39 
  -1  -4  -8    0.52    0.44 
  -1  -4  -8    0.70    0.50 
  -1  -4  -7   14.86    0.73 
  -1  -4  -7   16.49    0.72 
  -1  -4  -7   15.15    0.87 
  -1  -4  -7   14.57    0.88 
  -1  -4  -7   12.82    0.71 
  -1  -4  -7   16.81    0.97 
  -1  -4  -7   16.46    0.68 
  -1  -4  -6   16.02    0.68 
  -1  -4  -6   16.42    0.89 
  -1  -4  -6   18.22    0.91 
  -1  -4  -6   16.78    0.86 
  -1  -4  -6   15.74    0.66 
  -1  -4  -5  197.41    3.10 
  -1  -4  -5  208.72    2.51 
  -1  -4  -5  206.13    3.87 
  -1  -4  -5  198.68    3.16 
  -1  -4  -5  203.64    2.67 
  -1  -4  -4   15.74    0.54 
  -1  -4  -4   12.72    0.98 
  -1  -4  -4   16.03    0.74 
  -1  -4  -4   15.32    0.57 
  -1  -4  -4   20.20    1.67 
  -1  -4  -4   17.70    1.55 
  -1  -4  -3    0.55    0.28 
  -1  -4  -3    0.33    0.26 
  -1  -4  -3    0.41    0.57 
  -1  -4  -3    0.35    0.23 
  -1  -4  -3    0.40    0.25 
  -1  -4  -3    0.42    0.24 
  -1  -4  -3    0.54    0.97 
  -1  -4  -3    0.14    1.00 
  -1  -4  -2   11.66    0.56 
  -1  -4  -2   10.93    0.54 
  -1  -4  -2   11.03    0.73 
  -1  -4  -2   10.67    0.44 
  -1  -4  -2   10.20    0.44 
  -1  -4  -1   24.71    0.77 
  -1  -4  -1   21.76    0.83 
  -1  -4  -1    0.70    1.45 
  -1  -4  -1    0.98    1.50 
  -1  -4  -1   22.47    0.72 
  -1  -4  -1   21.94    0.71 
  -1  -4  -1   21.08    0.54 
  -1  -4   0   89.79    1.47 
  -1  -4   0  119.34    2.36 
  -1  -4   0   87.41    1.55 
  -1  -4   0  124.37    2.41 
  -1  -4   0  102.78    1.92 
  -1  -4   0   91.63    1.38 
  -1  -4   0   87.04    1.49 
  -1  -4   0   85.25    1.25 
  -1  -4   0   83.35    1.25 
  -1  -4   0   88.85    1.55 
  -1  -4   0  106.49    2.02 
  -1  -4   0   91.06    1.50 
  -1  -4   1  114.17    1.89 
  -1  -4   1   94.38    1.59 
  -1  -4   1   94.70    1.60 
  -1  -4   1   85.90    1.52 
  -1  -4   1   85.47    1.24 
  -1  -4   1   88.14    1.32 
  -1  -4   1   89.47    1.33 
  -1  -4   1   84.96    1.26 
  -1  -4   1   89.35    1.69 
  -1  -4   1  122.11    2.10 
  -1  -4   1   87.23    1.38 
  -1  -4   1   88.32    1.52 
  -1  -4   1   84.58    1.55 
  -1  -4   2    1.25    0.29 
  -1  -4   2    1.65    0.30 
  -1  -4   2    1.68    0.44 
  -1  -4   2    1.65    0.24 
  -1  -4   2    1.34    0.30 
  -1  -4   2    1.85    0.27 
  -1  -4   2    1.83    0.28 
  -1  -4   2    1.59    0.28 
  -1  -4   2    1.39    0.22 
  -1  -4   2    1.42    0.27 
  -1  -4   2    1.51    0.45 
  -1  -4   2    1.50    0.32 
  -1  -4   2    1.74    0.30 
  -1  -4   2    1.10    0.27 
  -1  -4   3   26.08    0.81 
  -1  -4   3   28.69    0.94 
  -1  -4   3   29.68    0.96 
  -1  -4   3   25.37    0.66 
  -1  -4   3   26.07    0.66 
  -1  -4   3   25.15    0.66 
  -1  -4   3   27.84    0.89 
  -1  -4   3   30.19    0.82 
  -1  -4   3   30.22    0.82 
  -1  -4   3   28.04    0.91 
  -1  -4   3   25.20    0.97 
  -1  -4   3   24.48    0.97 
  -1  -4   3   27.85    0.88 
  -1  -4   3   25.14    0.80 
  -1  -4   3   25.04    0.67 
  -1  -4   4   38.90    1.28 
  -1  -4   4   48.89    1.28 
  -1  -4   4   48.99    0.96 
  -1  -4   4   48.09    0.98 
  -1  -4   4   46.86    0.99 
  -1  -4   4   49.98    0.98 
  -1  -4   4   51.98    1.31 
  -1  -4   4   51.68    1.14 
  -1  -4   4   39.20    1.29 
  -1  -4   4   50.98    1.23 
  -1  -4   4   52.33    1.15 
  -1  -4   4   49.84    1.29 
  -1  -4   4   46.90    1.25 
  -1  -4   4   52.74    1.36 
  -1  -4   4   52.26    1.31 
  -1  -4   5    0.56    0.33 
  -1  -4   5    0.54    0.31 
  -1  -4   5    0.66    0.27 
  -1  -4   5    0.51    0.24 
  -1  -4   5    0.66    0.25 
  -1  -4   5    0.62    0.34 
  -1  -4   5    0.73    0.30 
  -1  -4   5   -0.01    0.35 
  -1  -4   5    0.09    0.36 
  -1  -4   5    0.70    0.30 
  -1  -4   5    0.15    0.30 
  -1  -4   5    0.53    0.34 
  -1  -4   5    0.75    0.34 
  -1  -4   6    0.28    0.35 
  -1  -4   6   -0.14    0.36 
  -1  -4   6   -0.04    0.37 
  -1  -4   6   -0.05    0.32 
  -1  -4   6   -0.04    0.36 
  -1  -4   6    0.06    0.30 
  -1  -4   6    0.05    0.37 
  -1  -4   6    0.05    0.27 
  -1  -4   6   -0.09    0.26 
  -1  -4   6   -0.07    0.31 
  -1  -4   6    0.23    0.28 
  -1  -4   6    0.21    0.25 
  -1  -4   6   -0.01    0.28 
  -1  -4   6    0.26    0.28 
  -1  -4   6    0.18    0.35 
  -1  -4   7    1.49    0.40 
  -1  -4   7    1.19    0.46 
  -1  -4   7    1.40    0.36 
  -1  -4   7    1.65    0.37 
  -1  -4   7    1.58    0.45 
  -1  -4   7    1.94    0.44 
  -1  -4   7    1.37    0.33 
  -1  -4   7    1.33    0.36 
  -1  -4   7    1.30    0.31 
  -1  -4   7    0.92    0.27 
  -1  -4   7    1.21    0.28 
  -1  -4   7    1.00    0.37 
  -1  -4   7    1.45    0.33 
  -1  -4   7    1.39    0.34 
  -1  -4   7    1.55    0.46 
  -1  -4   7    0.83    0.32 
  -1  -4   7    1.15    0.42 
  -1  -4   7    1.53    0.45 
  -1  -4   8   15.03    0.66 
  -1  -4   8   18.03    0.64 
  -1  -4   8   15.02    0.67 
  -1  -4   8   18.05    0.72 
  -1  -4   8   14.97    0.65 
  -1  -4   8   13.99    0.54 
  -1  -4   8   17.54    0.95 
  -1  -4   8   14.30    0.55 
  -1  -4   8   17.35    0.99 
  -1  -4   8   17.74    0.92 
  -1  -4   9    0.45    0.28 
  -1  -4   9    0.07    0.35 
  -1  -4   9    0.12    0.35 
  -1  -4   9    0.07    0.34 
  -1  -4   9   -0.11    0.24 
  -1  -4   9    0.00    0.24 
  -1  -4   9    0.16    0.29 
  -1  -4   9    0.11    0.26 
  -1  -4   9    0.12    0.28 
  -1  -4  10    0.10    0.24 
  -1  -4  10    0.08    0.25 
  -1  -4  10    0.05    0.31 
  -1  -4  10   -0.03    0.24 
  -1  -4  10    0.10    0.23 
  -1  -4  11    2.38    0.22 
  -1  -3 -11    2.07    0.29 
  -1  -3 -11    1.61    0.35 
  -1  -3 -11    1.44    0.34 
  -1  -3 -10   38.60    1.02 
  -1  -3 -10   39.60    0.95 
  -1  -3 -10   39.79    1.03 
  -1  -3 -10   34.38    0.87 
  -1  -3 -10   41.10    0.98 
  -1  -3 -10   34.96    1.18 
  -1  -3 -10   40.03    1.26 
  -1  -3  -9   13.78    0.66 
  -1  -3  -9   12.71    0.85 
  -1  -3  -9   12.47    0.65 
  -1  -3  -9   13.04    0.68 
  -1  -3  -9   12.15    0.67 
  -1  -3  -9   12.39    0.68 
  -1  -3  -9   14.00    0.87 
  -1  -3  -9   12.78    0.85 
  -1  -3  -9   11.57    0.79 
  -1  -3  -8    2.28    0.55 
  -1  -3  -8    2.63    0.51 
  -1  -3  -8    2.90    0.49 
  -1  -3  -8    2.72    0.46 
  -1  -3  -8    2.39    0.37 
  -1  -3  -8    1.73    0.49 
  -1  -3  -8    2.83    0.60 
  -1  -3  -8    2.15    0.56 
  -1  -3  -8    1.84    0.43 
  -1  -3  -8    2.69    0.45 
  -1  -3  -8    2.21    0.43 
  -1  -3  -8    1.97    1.60 
  -1  -3  -8    2.39    0.58 
  -1  -3  -8    1.89    0.57 
  -1  -3  -8    2.17    0.51 
  -1  -3  -7  133.50    2.65 
  -1  -3  -7  133.20    2.65 
  -1  -3  -7  109.57    3.15 
  -1  -3  -7  130.74    2.41 
  -1  -3  -7  130.09    2.37 
  -1  -3  -7  123.31    2.27 
  -1  -3  -7  135.33    2.08 
  -1  -3  -7  129.39    1.88 
  -1  -3  -7  138.13    2.00 
  -1  -3  -7  131.02    1.94 
  -1  -3  -7  112.25    1.88 
  -1  -3  -7  121.02    2.22 
  -1  -3  -7  138.24    2.55 
  -1  -3  -7  112.03    2.08 
  -1  -3  -7  137.30    2.55 
  -1  -3  -6    1.14    0.34 
  -1  -3  -6    1.73    0.46 
  -1  -3  -6    1.14    0.42 
  -1  -3  -6    1.29    0.45 
  -1  -3  -6    1.60    0.32 
  -1  -3  -6    1.05    0.78 
  -1  -3  -6    1.29    0.30 
  -1  -3  -6    1.28    0.41 
  -1  -3  -6    1.41    0.39 
  -1  -3  -6    0.83    0.37 
  -1  -3  -5  153.21    2.35 
  -1  -3  -5  147.26    2.01 
  -1  -3  -5  154.97    2.38 
  -1  -3  -5  160.92    2.39 
  -1  -3  -5  152.15    2.33 
  -1  -3  -5  161.10    2.93 
  -1  -3  -5  151.19    1.98 
  -1  -3  -5  143.23    2.49 
  -1  -3  -5  136.03    2.49 
  -1  -3  -4   45.42    0.88 
  -1  -3  -4   48.92    1.10 
  -1  -3  -4   42.74    1.16 
  -1  -3  -4   41.49    1.47 
  -1  -3  -4   42.43    1.16 
  -1  -3  -4   45.71    1.04 
  -1  -3  -4   46.73    1.05 
  -1  -3  -4   40.34    1.37 
  -1  -3  -3   51.43    1.13 
  -1  -3  -3   53.18    1.13 
  -1  -3  -3   54.87    1.08 
  -1  -3  -3   51.00    1.01 
  -1  -3  -3   52.61    0.87 
  -1  -3  -2   25.98    0.96 
  -1  -3  -2   31.86    0.75 
  -1  -3  -2   31.79    0.74 
  -1  -3  -2   31.40    0.74 
  -1  -3  -2   18.86    1.18 
  -1  -3  -2   20.10    1.24 
  -1  -3  -1    6.99    0.52 
  -1  -3  -1    7.71    0.37 
  -1  -3  -1    7.51    0.36 
  -1  -3   0    4.36    0.30 
  -1  -3   0    4.86    0.44 
  -1  -3   0    4.70    0.78 
  -1  -3   0    5.53    0.60 
  -1  -3   0    4.90    0.79 
  -1  -3   0    4.21    0.28 
  -1  -3   0    4.53    0.63 
  -1  -3   0    4.44    0.30 
  -1  -3   1  180.39    2.24 
  -1  -3   1  176.70    2.27 
  -1  -3   1  184.43    2.42 
  -1  -3   1  185.13    2.10 
  -1  -3   1  181.03    2.23 
  -1  -3   1  180.13    2.24 
  -1  -3   1  177.23    2.22 
  -1  -3   2  205.65    2.38 
  -1  -3   2  235.71    2.78 
  -1  -3   2  240.27    2.65 
  -1  -3   2  231.65    2.81 
  -1  -3   2  223.76    2.65 
  -1  -3   2  234.52    2.83 
  -1  -3   2  258.59    2.95 
  -1  -3   2  220.97    2.65 
  -1  -3   2  232.32    2.75 
  -1  -3   3   11.38    0.53 
  -1  -3   3   10.12    0.51 
  -1  -3   3   11.03    0.58 
  -1  -3   3   11.57    0.51 
  -1  -3   3   11.13    0.59 
  -1  -3   3   11.61    0.57 
  -1  -3   3   10.38    0.51 
  -1  -3   3    9.36    0.38 
  -1  -3   3   10.30    0.39 
  -1  -3   3   10.25    0.34 
  -1  -3   3   11.16    0.54 
  -1  -3   3   11.61    0.58 
  -1  -3   4   27.22    0.87 
  -1  -3   4   24.55    0.65 
  -1  -3   4   26.53    0.81 
  -1  -3   4   28.90    0.88 
  -1  -3   4   24.11    0.61 
  -1  -3   4   25.01    0.65 
  -1  -3   4   27.25    0.66 
  -1  -3   4   25.63    0.85 
  -1  -3   4   27.73    0.87 
  -1  -3   4   30.00    0.81 
  -1  -3   4   29.67    0.81 
  -1  -3   4   27.05    0.86 
  -1  -3   4   21.15    0.59 
  -1  -3   4   25.67    0.84 
  -1  -3   5    0.58    0.25 
  -1  -3   5    0.95    0.32 
  -1  -3   5    0.88    0.31 
  -1  -3   5    0.47    0.33 
  -1  -3   5    0.17    0.34 
  -1  -3   5    1.18    0.31 
  -1  -3   5    1.36    0.31 
  -1  -3   5    0.98    0.33 
  -1  -3   5    1.39    0.25 
  -1  -3   5    1.08    0.24 
  -1  -3   5    1.05    0.34 
  -1  -3   5    1.06    0.33 
  -1  -3   5    1.01    0.24 
  -1  -3   6   16.54    0.61 
  -1  -3   6   14.89    0.75 
  -1  -3   6   15.58    0.81 
  -1  -3   6   17.81    0.64 
  -1  -3   6   16.41    0.73 
  -1  -3   6   14.42    0.87 
  -1  -3   6   18.91    0.77 
  -1  -3   6   19.01    0.78 
  -1  -3   6   15.59    0.81 
  -1  -3   6   16.86    0.59 
  -1  -3   6   18.46    0.82 
  -1  -3   6   17.79    0.83 
  -1  -3   6   13.36    0.84 
  -1  -3   7   19.89    0.69 
  -1  -3   7   19.50    0.71 
  -1  -3   7   16.45    0.82 
  -1  -3   7   18.62    0.79 
  -1  -3   7   21.34    0.75 
  -1  -3   7   18.92    0.71 
  -1  -3   7   19.30    0.71 
  -1  -3   7   23.28    0.74 
  -1  -3   7   22.86    0.91 
  -1  -3   7   21.94    0.89 
  -1  -3   7   19.20    0.99 
  -1  -3   7   19.35    1.00 
  -1  -3   7   23.06    0.98 
  -1  -3   8    4.67    0.59 
  -1  -3   8    4.32    0.43 
  -1  -3   8    4.62    0.45 
  -1  -3   8    4.93    0.39 
  -1  -3   8    4.15    0.45 
  -1  -3   8    3.96    0.44 
  -1  -3   8    5.35    0.58 
  -1  -3   8    4.32    0.57 
  -1  -3   8    4.86    0.51 
  -1  -3   8    4.69    0.50 
  -1  -3   9    4.34    0.54 
  -1  -3   9    3.86    0.42 
  -1  -3   9    3.61    0.40 
  -1  -3   9    3.50    0.41 
  -1  -3   9    4.18    0.42 
  -1  -3  10    7.69    0.40 
  -1  -3  10    7.15    0.39 
  -1  -3  10   10.38    0.47 
  -1  -3  10    5.09    0.48 
  -1  -3  10    8.88    0.49 
  -1  -3  10    8.99    0.50 
  -1  -3  11   11.48    0.39 
  -1  -3  11   16.54    0.45 
  -1  -3  11   16.75    0.48 
  -1  -3  11   12.56    0.52 
  -1  -2 -12    0.01    0.20 
  -1  -2 -11    0.73    0.36 
  -1  -2 -11    0.65    0.36 
  -1  -2 -11    0.04    0.33 
  -1  -2 -11    0.52    0.35 
  -1  -2 -10    2.07    0.40 
  -1  -2 -10    1.77    0.53 
  -1  -2 -10    2.81    0.59 
  -1  -2 -10    2.46    0.46 
  -1  -2 -10    2.38    0.46 
  -1  -2 -10    1.96    0.38 
  -1  -2 -10    1.98    0.46 
  -1  -2 -10    2.29    0.54 
  -1  -2 -10    2.34    0.54 
  -1  -2  -9   41.93    1.36 
  -1  -2  -9   41.61    1.44 
  -1  -2  -9   42.82    1.24 
  -1  -2  -9   39.90    1.01 
  -1  -2  -9   32.87    1.22 
  -1  -2  -9   39.03    1.53 
  -1  -2  -9   41.84    1.04 
  -1  -2  -9   43.07    1.13 
  -1  -2  -9   43.28    1.12 
  -1  -2  -9   38.27    1.57 
  -1  -2  -9   37.38    1.56 
  -1  -2  -9   32.97    1.98 
  -1  -2  -9   40.68    1.56 
  -1  -2  -9   38.99    1.33 
  -1  -2  -8   98.47    2.10 
  -1  -2  -8   97.57    2.24 
  -1  -2  -8   99.46    2.13 
  -1  -2  -8  101.70    1.92 
  -1  -2  -8   96.51    1.61 
  -1  -2  -8  101.15    2.44 
  -1  -2  -8   99.27    2.43 
  -1  -2  -8   87.13    1.90 
  -1  -2  -8   75.13    1.63 
  -1  -2  -8  104.39    1.74 
  -1  -2  -8   98.97    1.67 
  -1  -2  -8  102.65    1.73 
  -1  -2  -8   99.40    2.41 
  -1  -2  -8   97.28    2.39 
  -1  -2  -8   75.96    2.63 
  -1  -2  -8   96.65    2.02 
  -1  -2  -7    4.34    0.54 
  -1  -2  -7    3.85    0.65 
  -1  -2  -7    3.03    0.51 
  -1  -2  -7    3.96    0.46 
  -1  -2  -7    4.63    0.54 
  -1  -2  -7    3.69    0.42 
  -1  -2  -7    3.53    0.67 
  -1  -2  -7    4.93    0.68 
  -1  -2  -7    3.84    0.49 
  -1  -2  -7    3.98    0.43 
  -1  -2  -7    4.08    0.41 
  -1  -2  -7    4.03    0.43 
  -1  -2  -7    3.98    0.61 
  -1  -2  -7    4.24    0.60 
  -1  -2  -7    4.53    0.98 
  -1  -2  -7    4.44    0.52 
  -1  -2  -6  171.90    2.55 
  -1  -2  -6  191.99    3.07 
  -1  -2  -6  187.30    3.07 
  -1  -2  -6  168.26    2.43 
  -1  -2  -6  182.66    2.31 
  -1  -2  -6  177.84    2.66 
  -1  -2  -6  176.33    2.59 
  -1  -2  -6  172.94    2.22 
  -1  -2  -6  171.63    2.22 
  -1  -2  -6  215.93    2.97 
  -1  -2  -6  181.82    2.68 
  -1  -2  -6  182.85    3.00 
  -1  -2  -6  182.80    3.00 
  -1  -2  -6  223.26    3.73 
  -1  -2  -5  197.53    2.64 
  -1  -2  -5  231.61    3.23 
  -1  -2  -5  230.69    3.22 
  -1  -2  -5  223.93    2.57 
  -1  -2  -5  228.23    2.90 
  -1  -2  -5  221.64    2.89 
  -1  -2  -5  207.56    2.50 
  -1  -2  -5  265.87    3.22 
  -1  -2  -5  220.08    2.89 
  -1  -2  -5  274.53    3.90 
  -1  -2  -5  207.50    3.13 
  -1  -2  -5  204.77    3.15 
  -1  -2  -4   96.70    1.33 
  -1  -2  -4   99.12    1.57 
  -1  -2  -4  102.63    1.58 
  -1  -2  -4   98.47    1.70 
  -1  -2  -4   98.54    1.70 
  -1  -2  -4   93.19    1.66 
  -1  -2  -4   93.62    1.67 
  -1  -2  -4   94.55    1.53 
  -1  -2  -3  537.57    5.72 
  -1  -2  -3  547.52    5.81 
  -1  -2  -3  548.89    5.82 
  -1  -2  -2  209.24    2.09 
  -1  -2  -2  206.84    2.07 
  -1  -2  -2  227.41    2.25 
  -1  -2  -2  226.00    2.26 
  -1  -2  -1  836.85    3.12 
  -1  -2  -1  825.57    3.08 
  -1  -2   0    2.46    0.20 
  -1  -2   0    2.38    0.22 
  -1  -2   0    2.63    0.22 
  -1  -2   0    2.77    0.19 
  -1  -2   0    3.06    0.46 
  -1  -2   0    3.28    0.45 
  -1  -2   0    2.25    0.28 
  -1  -2   1 9793.58   89.34 
  -1  -2   1 9727.12   89.51 
  -1  -2   1 9999.00   89.61 
  -1  -2   1 9737.41   89.52 
  -1  -2   2  241.53    2.40 
  -1  -2   2  246.08    2.78 
  -1  -2   2  258.89    2.76 
  -1  -2   2  253.67    2.82 
  -1  -2   2  256.03    2.85 
  -1  -2   2  252.31    2.82 
  -1  -2   2  252.86    2.79 
  -1  -2   3  311.50    3.09 
  -1  -2   3  298.75    3.44 
  -1  -2   3  305.62    3.40 
  -1  -2   3  311.04    3.51 
  -1  -2   3  296.71    3.45 
  -1  -2   3  324.29    3.39 
  -1  -2   3  323.04    3.39 
  -1  -2   3  315.94    3.53 
  -1  -2   3  319.23    3.47 
  -1  -2   3  302.11    3.51 
  -1  -2   3  317.21    3.47 
  -1  -2   3  304.84    3.38 
  -1  -2   3  308.49    3.50 
  -1  -2   4   93.97    1.55 
  -1  -2   4   88.51    1.28 
  -1  -2   4   83.35    1.19 
  -1  -2   4   89.86    1.47 
  -1  -2   4   97.63    2.31 
  -1  -2   4   98.11    1.50 
  -1  -2   4   94.11    1.56 
  -1  -2   4   95.21    1.56 
  -1  -2   4   91.80    1.58 
  -1  -2   4   91.67    1.57 
  -1  -2   4   90.54    1.43 
  -1  -2   5  101.53    1.48 
  -1  -2   5  112.10    1.53 
  -1  -2   5  112.66    1.85 
  -1  -2   5  103.94    1.55 
  -1  -2   5  111.33    1.53 
  -1  -2   5  102.62    1.73 
  -1  -2   5  118.67    1.85 
  -1  -2   5  119.07    1.84 
  -1  -2   5  110.71    1.84 
  -1  -2   5  111.67    1.87 
  -1  -2   5  108.46    1.91 
  -1  -2   5  113.68    1.90 
  -1  -2   5  103.74    1.67 
  -1  -2   5  106.35    1.90 
  -1  -2   6   66.79    1.19 
  -1  -2   6   59.08    1.33 
  -1  -2   6   63.89    1.51 
  -1  -2   6   69.58    1.47 
  -1  -2   6   70.32    1.48 
  -1  -2   6   62.83    1.49 
  -1  -2   6   65.45    1.17 
  -1  -2   6   63.10    1.12 
  -1  -2   6   66.18    1.23 
  -1  -2   6   63.71    1.21 
  -1  -2   6   68.14    1.54 
  -1  -2   6   66.83    1.50 
  -1  -2   7   27.30    0.81 
  -1  -2   7   23.06    0.85 
  -1  -2   7   28.36    0.83 
  -1  -2   7   28.27    0.84 
  -1  -2   7   30.76    1.12 
  -1  -2   7   25.71    0.79 
  -1  -2   7   26.57    0.79 
  -1  -2   7   29.33    1.07 
  -1  -2   7   28.70    1.07 
  -1  -2   7   30.66    1.05 
  -1  -2   7   30.80    1.05 
  -1  -2   8  118.10    2.28 
  -1  -2   8  119.75    2.29 
  -1  -2   8  109.80    2.35 
  -1  -2   8  108.31    1.82 
  -1  -2   8  109.54    1.81 
  -1  -2   8  111.75    2.31 
  -1  -2   8  120.68    2.37 
  -1  -2   8  110.66    1.79 
  -1  -2   8  111.50    1.88 
  -1  -2   8  111.69    1.90 
  -1  -2   9   34.14    0.98 
  -1  -2   9   35.22    0.94 
  -1  -2   9   36.85    0.97 
  -1  -2   9   37.24    0.97 
  -1  -2   9   36.22    1.36 
  -1  -2   9   39.04    1.32 
  -1  -2   9   36.14    1.36 
  -1  -2  10   37.66    0.88 
  -1  -2  10   35.33    1.31 
  -1  -2  10   34.09    1.28 
  -1  -2  10   34.51    0.90 
  -1  -2  11   22.98    0.58 
  -1  -2  11   23.68    0.60 
  -1  -2  11   16.75    0.52 
  -1  -2  11   17.20    0.52 
  -1  -2  12    3.86    0.20 
  -1  -1 -12    0.89    0.27 
  -1  -1 -12    1.00    0.25 
  -1  -1 -12    0.66    0.26 
  -1  -1 -12    0.76    0.27 
  -1  -1 -11   15.07    0.65 
  -1  -1 -11   14.45    0.57 
  -1  -1 -11   15.23    0.65 
  -1  -1 -11   14.48    0.64 
  -1  -1 -10   37.04    0.97 
  -1  -1 -10   27.62    1.14 
  -1  -1 -10   32.89    0.94 
  -1  -1 -10   37.70    1.04 
  -1  -1 -10   37.21    1.05 
  -1  -1 -10   37.78    1.05 
  -1  -1 -10   35.18    1.42 
  -1  -1 -10   30.29    1.16 
  -1  -1 -10   36.92    1.45 
  -1  -1 -10   33.68    1.26 
  -1  -1  -9   46.17    1.51 
  -1  -1  -9   43.50    1.15 
  -1  -1  -9   45.33    1.40 
  -1  -1  -9   45.32    1.63 
  -1  -1  -9   46.60    1.30 
  -1  -1  -9   41.83    1.06 
  -1  -1  -9   20.74    1.47 
  -1  -1  -9   46.33    1.17 
  -1  -1  -9   20.94    1.46 
  -1  -1  -9   42.57    1.03 
  -1  -1  -9   45.33    1.16 
  -1  -1  -9   44.90    1.16 
  -1  -1  -9   46.81    1.70 
  -1  -1  -9   44.76    1.67 
  -1  -1  -9   36.81    1.32 
  -1  -1  -9   43.53    1.43 
  -1  -1  -8   18.89    1.45 
  -1  -1  -8   24.17    1.06 
  -1  -1  -8   21.66    0.87 
  -1  -1  -8   23.87    0.89 
  -1  -1  -8   23.66    0.97 
  -1  -1  -8   20.42    0.73 
  -1  -1  -8   23.56    0.82 
  -1  -1  -8   24.00    0.83 
  -1  -1  -8   22.71    0.76 
  -1  -1  -8   23.30    0.82 
  -1  -1  -8   21.80    0.98 
  -1  -1  -8   24.03    1.23 
  -1  -1  -8   21.25    1.07 
  -1  -1  -8   23.31    1.01 
  -1  -1  -8   18.24    0.80 
  -1  -1  -8   23.13    1.25 
  -1  -1  -8   22.34    1.22 
  -1  -1  -8   17.79    0.95 
  -1  -1  -7   63.92    1.34 
  -1  -1  -7   56.43    1.11 
  -1  -1  -7   64.15    1.85 
  -1  -1  -7   61.03    1.42 
  -1  -1  -7   67.44    1.88 
  -1  -1  -7   54.64    1.25 
  -1  -1  -7   65.10    1.25 
  -1  -1  -7   59.84    1.17 
  -1  -1  -7   63.64    1.24 
  -1  -1  -7   61.48    1.47 
  -1  -1  -7   62.08    1.65 
  -1  -1  -7   63.92    1.80 
  -1  -1  -7   70.69    1.95 
  -1  -1  -7   61.77    1.45 
  -1  -1  -6    0.20    0.33 
  -1  -1  -6   -0.06    0.29 
  -1  -1  -6   -0.30    0.53 
  -1  -1  -6   -0.09    0.48 
  -1  -1  -6   -0.07    0.34 
  -1  -1  -6    0.21    0.29 
  -1  -1  -6    0.23    0.27 
  -1  -1  -6   -0.01    0.30 
  -1  -1  -6    0.02    0.36 
  -1  -1  -6    0.14    0.52 
  -1  -1  -6   -0.13    0.60 
  -1  -1  -6    0.19    0.30 
  -1  -1  -6    0.22    0.33 
  -1  -1  -5  131.12    1.92 
  -1  -1  -5  126.50    1.65 
  -1  -1  -5  142.17    2.40 
  -1  -1  -5  131.17    1.90 
  -1  -1  -5  142.63    2.42 
  -1  -1  -5  136.50    1.74 
  -1  -1  -5  131.94    1.72 
  -1  -1  -5  136.88    1.73 
  -1  -1  -5  141.14    2.32 
  -1  -1  -5  134.94    1.99 
  -1  -1  -5  122.19    1.90 
  -1  -1  -5  133.90    2.01 
  -1  -1  -4  122.24    1.95 
  -1  -1  -4  116.54    1.74 
  -1  -1  -4  119.28    1.70 
  -1  -1  -4  124.42    2.02 
  -1  -1  -4  125.73    2.05 
  -1  -1  -3   43.10    0.95 
  -1  -1  -3   43.83    0.96 
  -1  -1  -3   44.72    0.81 
  -1  -1  -3   44.86    0.84 
  -1  -1  -2   28.41    0.68 
  -1  -1  -2   27.62    0.55 
  -1  -1  -1    1.40    0.33 
  -1  -1   0  687.31    6.68 
  -1  -1   0  756.78    6.70 
  -1  -1   2  737.59    6.63 
  -1  -1   2  737.28    6.78 
  -1  -1   2  735.29    6.46 
  -1  -1   3    5.96    0.33 
  -1  -1   3    5.99    0.33 
  -1  -1   3    6.51    0.18 
  -1  -1   3    6.93    0.28 
  -1  -1   3    6.20    0.30 
  -1  -1   3    6.71    0.31 
  -1  -1   3    6.05    0.33 
  -1  -1   3    6.03    0.33 
  -1  -1   4   63.97    1.17 
  -1  -1   4   59.87    0.83 
  -1  -1   4   59.69    1.01 
  -1  -1   4   57.49    1.14 
  -1  -1   4   61.08    1.15 
  -1  -1   4   62.61    1.11 
  -1  -1   4   60.46    1.14 
  -1  -1   4   62.50    1.10 
  -1  -1   4   60.66    1.18 
  -1  -1   5   56.43    1.23 
  -1  -1   5   50.10    0.99 
  -1  -1   5   53.44    0.83 
  -1  -1   5   54.02    1.01 
  -1  -1   5   50.82    0.93 
  -1  -1   5   50.68    0.95 
  -1  -1   5   53.79    1.22 
  -1  -1   5   53.71    1.19 
  -1  -1   5   53.93    1.20 
  -1  -1   5   53.79    1.16 
  -1  -1   5   55.55    1.16 
  -1  -1   6   96.46    1.82 
  -1  -1   6   88.49    1.76 
  -1  -1   6   96.54    1.56 
  -1  -1   6   84.15    1.46 
  -1  -1   6   89.77    1.44 
  -1  -1   6   93.78    1.44 
  -1  -1   6   97.92    1.79 
  -1  -1   6   98.17    1.79 
  -1  -1   6   93.72    1.79 
  -1  -1   6   93.48    1.81 
  -1  -1   6   96.86    1.86 
  -1  -1   6   96.44    1.86 
  -1  -1   7  149.03    2.14 
  -1  -1   7  146.13    2.13 
  -1  -1   7  156.24    2.64 
  -1  -1   7  155.66    2.32 
  -1  -1   7  154.31    2.16 
  -1  -1   7  163.25    2.76 
  -1  -1   7  165.61    2.66 
  -1  -1   7  166.09    2.66 
  -1  -1   7  155.13    2.15 
  -1  -1   7  162.15    2.69 
  -1  -1   7  160.04    2.72 
  -1  -1   7  156.19    2.67 
  -1  -1   8    3.83    0.44 
  -1  -1   8    3.73    0.51 
  -1  -1   8    3.69    0.37 
  -1  -1   8    3.62    0.54 
  -1  -1   8    4.01    0.52 
  -1  -1   8    4.24    0.52 
  -1  -1   8    3.60    0.42 
  -1  -1   8    3.61    0.39 
  -1  -1   8    3.53    0.54 
  -1  -1   8    3.83    0.54 
  -1  -1   8    3.94    0.52 
  -1  -1   9   37.91    1.01 
  -1  -1   9   43.61    1.14 
  -1  -1   9   42.11    1.38 
  -1  -1   9   40.42    1.04 
  -1  -1   9   41.36    1.41 
  -1  -1   9   41.02    1.44 
  -1  -1   9   42.07    1.04 
  -1  -1   9   42.41    1.04 
  -1  -1  10    1.11    0.42 
  -1  -1  10    1.04    0.33 
  -1  -1  10    1.17    0.40 
  -1  -1  10    1.31    0.36 
  -1  -1  10    1.14    0.32 
  -1  -1  10    1.17    0.32 
  -1  -1  11    2.97    0.31 
  -1  -1  11    2.81    0.31 
  -1  -1  11    2.66    0.33 
  -1  -1  12   42.48    0.68 
  -1   0 -11    7.02    0.65 
  -1   0 -11    7.35    0.52 
  -1   0 -11    7.78    0.48 
  -1   0 -11    6.71    0.65 
  -1   0 -11    7.31    0.46 
  -1   0 -10    2.39    0.47 
  -1   0 -10    2.69    0.49 
  -1   0 -10    3.10    0.48 
  -1   0 -10    3.03    0.49 
  -1   0 -10    2.52    0.55 
  -1   0 -10    2.09    0.62 
  -1   0 -10    2.02    0.58 
  -1   0 -10    2.83    0.65 
  -1   0 -10    2.08    0.48 
  -1   0 -10    2.91    0.60 
  -1   0  -9   12.67    0.75 
  -1   0  -9   12.99    0.85 
  -1   0  -9   12.10    0.99 
  -1   0  -9   11.76    0.93 
  -1   0  -9   15.60    0.79 
  -1   0  -9   13.13    0.68 
  -1   0  -9   13.55    0.73 
  -1   0  -9   11.54    1.15 
  -1   0  -9   11.82    1.16 
  -1   0  -9    9.07    0.84 
  -1   0  -9   14.36    1.02 
  -1   0  -9   14.32    1.01 
  -1   0  -9    9.82    0.71 
  -1   0  -9   12.04    0.98 
  -1   0  -9   13.57    1.01 
  -1   0  -9   12.34    0.87 
  -1   0  -8    1.73    0.58 
  -1   0  -8    1.66    0.57 
  -1   0  -8    1.39    0.51 
  -1   0  -8    1.58    0.47 
  -1   0  -8    1.82    0.44 
  -1   0  -8    1.57    0.45 
  -1   0  -8    1.06    1.13 
  -1   0  -8    0.84    1.16 
  -1   0  -8    1.59    0.38 
  -1   0  -8    1.32    0.53 
  -1   0  -8    1.70    0.68 
  -1   0  -8    1.70    0.62 
  -1   0  -8    1.91    0.62 
  -1   0  -8    0.46    0.57 
  -1   0  -8    1.30    0.49 
  -1   0  -8    1.34    0.63 
  -1   0  -8    1.32    0.53 
  -1   0  -7    4.44    0.63 
  -1   0  -7    4.62    0.63 
  -1   0  -7    4.92    0.69 
  -1   0  -7    3.93    0.40 
  -1   0  -7    3.19    0.70 
  -1   0  -7    4.15    0.45 
  -1   0  -7    3.03    0.70 
  -1   0  -7    4.05    0.40 
  -1   0  -7    4.82    0.56 
  -1   0  -7    4.32    0.65 
  -1   0  -7    4.60    0.69 
  -1   0  -7    4.05    0.48 
  -1   0  -7    4.72    0.57 
  -1   0  -7    4.87    0.69 
  -1   0  -7    4.08    0.64 
  -1   0  -7    3.71    0.46 
  -1   0  -7    4.60    0.58 
  -1   0  -6   82.01    1.35 
  -1   0  -6   76.42    1.44 
  -1   0  -6   84.90    1.94 
  -1   0  -6   87.07    1.94 
  -1   0  -6   83.48    1.62 
  -1   0  -6   77.11    1.58 
  -1   0  -6   79.51    1.86 
  -1   0  -6   87.69    1.93 
  -1   0  -6   84.30    1.89 
  -1   0  -6   91.77    1.81 
  -1   0  -6   68.96    1.22 
  -1   0  -6   85.21    1.64 
  -1   0  -5    9.00    0.56 
  -1   0  -5    8.60    0.70 
  -1   0  -5   10.11    0.75 
  -1   0  -5    8.96    0.49 
  -1   0  -5   10.95    0.74 
  -1   0  -5   10.15    0.58 
  -1   0  -5   10.07    0.57 
  -1   0  -5   10.56    0.66 
  -1   0  -5   10.20    0.67 
  -1   0  -4    4.62    0.43 
  -1   0  -4    4.81    0.44 
  -1   0  -4    4.08    0.39 
  -1   0  -4    3.94    0.40 
  -1   0  -4    3.79    0.34 
  -1   0  -4    4.38    0.36 
  -1   0  -4    4.18    0.38 
  -1   0  -4    4.11    0.51 
  -1   0  -4    3.86    0.53 
  -1   0  -3   18.55    0.61 
  -1   0  -3   19.67    0.62 
  -1   0  -3   19.53    0.56 
  -1   0  -3   18.57    0.51 
  -1   0  -3   18.17    0.65 
  -1   0  -3   17.17    0.65 
  -1   0  -3   18.48    0.53 
  -1   0  -2  375.94    3.79 
  -1   0  -2  381.95    3.80 
  -1   0  -2  375.69    3.69 
  -1   0  -1  167.19    1.70 
  -1   0  -1  169.69    1.78 
  -1   0   0   39.38    0.53 
  -1   0   0   38.99    0.53 
  -1   0   2  367.66    3.60 
  -1   0   2  365.72    3.78 
  -1   0   2  368.79    3.79 
  -1   0   2  365.67    3.58 
  -1   0   2  368.09    3.58 
  -1   0   3   53.67    0.71 
  -1   0   3   53.14    0.80 
  -1   0   3   52.12    0.70 
  -1   0   3   54.63    0.87 
  -1   0   3   54.95    0.87 
  -1   0   3   57.23    0.91 
  -1   0   3   55.11    0.94 
  -1   0   3   45.43    0.95 
  -1   0   3   54.51    0.87 
  -1   0   3   47.02    0.95 
  -1   0   3   56.92    1.02 
  -1   0   3   51.90    0.95 
  -1   0   4  168.54    1.95 
  -1   0   4  162.93    2.24 
  -1   0   4  168.78    2.31 
  -1   0   4  165.18    2.22 
  -1   0   4  164.99    2.22 
  -1   0   4  159.90    2.18 
  -1   0   4  174.76    2.40 
  -1   0   4  163.65    2.30 
  -1   0   4  168.43    2.26 
  -1   0   5   17.96    0.57 
  -1   0   5   20.11    0.62 
  -1   0   5   20.65    0.62 
  -1   0   5   19.51    0.67 
  -1   0   5   19.74    0.55 
  -1   0   5   20.08    0.74 
  -1   0   5   18.38    0.68 
  -1   0   5   20.60    0.70 
  -1   0   5   21.09    0.70 
  -1   0   5   18.74    0.69 
  -1   0   5   20.03    0.76 
  -1   0   5   21.42    0.81 
  -1   0   5   19.43    0.62 
  -1   0   5   19.45    0.49 
  -1   0   6    7.39    0.44 
  -1   0   6    6.99    0.33 
  -1   0   6    7.85    0.58 
  -1   0   6    7.66    0.51 
  -1   0   6    7.92    0.52 
  -1   0   6    7.84    0.52 
  -1   0   6    7.14    0.40 
  -1   0   6    7.18    0.48 
  -1   0   6    6.81    0.42 
  -1   0   6    7.71    0.56 
  -1   0   6    7.12    0.50 
  -1   0   7  113.03    1.75 
  -1   0   7  113.89    2.15 
  -1   0   7  115.99    2.20 
  -1   0   7  121.55    2.24 
  -1   0   7  119.89    2.23 
  -1   0   7  113.08    1.80 
  -1   0   7  115.95    2.18 
  -1   0   7  110.52    1.75 
  -1   0   8   31.10    1.10 
  -1   0   8   29.80    0.89 
  -1   0   8   31.22    0.93 
  -1   0   8   32.55    0.89 
  -1   0   8   28.20    1.17 
  -1   0   8   29.66    1.15 
  -1   0   8   29.91    0.77 
  -1   0   9    3.16    0.41 
  -1   0   9    3.85    0.42 
  -1   0   9    3.67    0.53 
  -1   0   9    3.38    0.51 
  -1   0   9    3.78    0.35 
  -1   0  10    8.75    0.54 
  -1   0  10    9.69    0.51 
  -1   0  10    8.85    0.67 
  -1   0  10    8.26    0.66 
  -1   0  11    9.25    0.48 
  -1   0  11    9.31    0.49 
  -1   1 -12    1.21    0.24 
  -1   1 -12    1.34    0.24 
  -1   1 -11    0.48    0.33 
  -1   1 -11    0.43    0.32 
  -1   1 -11    0.52    0.33 
  -1   1 -11    0.47    0.33 
  -1   1 -11    0.60    0.36 
  -1   1 -10   96.92    1.91 
  -1   1 -10   99.37    1.72 
  -1   1 -10  108.48    1.71 
  -1   1 -10  106.39    1.69 
  -1   1 -10  100.60    1.77 
  -1   1 -10  102.10    1.77 
  -1   1 -10  103.82    1.78 
  -1   1 -10  101.38    1.81 
  -1   1 -10   91.11    2.06 
  -1   1 -10   98.94    2.25 
  -1   1  -9   14.36    1.00 
  -1   1  -9   13.85    1.00 
  -1   1  -9   15.04    0.79 
  -1   1  -9   13.84    0.97 
  -1   1  -9   16.06    1.02 
  -1   1  -9   16.25    0.79 
  -1   1  -9   14.89    0.80 
  -1   1  -9   14.74    0.72 
  -1   1  -9   17.19    0.84 
  -1   1  -9   13.24    0.76 
  -1   1  -9   16.99    0.84 
  -1   1  -9   15.17    0.73 
  -1   1  -9   15.72    0.75 
  -1   1  -9   12.49    0.92 
  -1   1  -9   11.32    0.75 
  -1   1  -9   15.29    0.97 
  -1   1  -8   53.33    1.36 
  -1   1  -8   54.93    1.65 
  -1   1  -8   52.85    1.24 
  -1   1  -8   54.01    1.49 
  -1   1  -8   52.31    1.49 
  -1   1  -8   54.74    1.27 
  -1   1  -8   55.99    1.29 
  -1   1  -8   45.82    1.37 
  -1   1  -8   46.37    1.57 
  -1   1  -8   56.55    1.28 
  -1   1  -8   53.59    1.71 
  -1   1  -8   53.42    1.71 
  -1   1  -8   52.85    1.53 
  -1   1  -8   53.29    1.75 
  -1   1  -8   53.90    1.76 
  -1   1  -7  134.24    2.54 
  -1   1  -7  180.12    2.43 
  -1   1  -7  134.70    2.56 
  -1   1  -7  180.84    2.90 
  -1   1  -7  164.00    2.61 
  -1   1  -7  186.11    2.96 
  -1   1  -7  185.48    3.10 
  -1   1  -7  174.44    2.38 
  -1   1  -7  179.38    2.82 
  -1   1  -7  188.69    3.17 
  -1   1  -7  188.33    3.17 
  -1   1  -6   82.31    1.76 
  -1   1  -6   82.21    1.77 
  -1   1  -6  116.34    1.72 
  -1   1  -6  114.61    1.94 
  -1   1  -6  123.17    2.14 
  -1   1  -6  124.69    2.15 
  -1   1  -6  123.17    2.34 
  -1   1  -6  117.58    1.71 
  -1   1  -6  113.77    2.02 
  -1   1  -6  131.76    2.35 
  -1   1  -6  130.23    2.34 
  -1   1  -5  102.13    1.95 
  -1   1  -5  159.39    1.99 
  -1   1  -5  104.39    1.97 
  -1   1  -5  170.95    2.44 
  -1   1  -5  189.94    2.77 
  -1   1  -5  153.03    2.20 
  -1   1  -5  170.38    2.40 
  -1   1  -5  175.77    2.55 
  -1   1  -5  174.55    2.55 
  -1   1  -5  160.58    1.97 
  -1   1  -5  163.82    2.59 
  -1   1  -4  104.13    1.87 
  -1   1  -4   93.73    1.64 
  -1   1  -4  104.62    1.85 
  -1   1  -4   84.99    1.48 
  -1   1  -4   93.22    1.63 
  -1   1  -4  108.59    1.49 
  -1   1  -4   91.81    1.62 
  -1   1  -4   82.04    1.51 
  -1   1  -4   91.42    1.58 
  -1   1  -3  288.46    3.22 
  -1   1  -3  286.82    3.20 
  -1   1  -3  249.83    2.97 
  -1   1  -3  232.38    2.86 
  -1   1  -3  272.09    2.71 
  -1   1  -3  248.23    2.90 
  -1   1  -3  210.82    2.84 
  -1   1  -3  230.44    2.87 
  -1   1  -2  205.16    2.33 
  -1   1  -2  208.92    2.23 
  -1   1  -2  208.51    2.23 
  -1   1  -2  183.48    2.24 
  -1   1  -2  189.12    2.28 
  -1   1  -1 1953.05   18.72 
  -1   1  -1 1918.22   18.71 
  -1   1  -1 2378.06   18.88 
  -1   1  -1 2380.59   18.89 
  -1   1   0    0.25    0.15 
  -1   1   0    0.19    0.15 
  -1   1   1  779.66    7.05 
  -1   1   2  239.60    2.77 
  -1   1   2  250.59    2.78 
  -1   1   3    3.63    0.28 
  -1   1   3    4.17    0.36 
  -1   1   3    3.35    0.33 
  -1   1   3    3.44    0.31 
  -1   1   3    3.52    0.31 
  -1   1   4   26.96    0.61 
  -1   1   4   26.90    0.74 
  -1   1   4   28.82    0.85 
  -1   1   4   28.63    0.85 
  -1   1   5  222.63    2.68 
  -1   1   5  220.67    2.69 
  -1   1   5  229.95    2.59 
  -1   1   5  210.17    2.67 
  -1   1   5  231.76    2.76 
  -1   1   5  226.53    2.97 
  -1   1   5  246.60    2.88 
  -1   1   5  249.18    3.22 
  -1   1   5  247.37    3.22 
  -1   1   6    6.49    0.58 
  -1   1   6    6.39    0.46 
  -1   1   6    6.29    0.37 
  -1   1   6    5.95    0.44 
  -1   1   6    5.72    0.44 
  -1   1   6    6.15    0.51 
  -1   1   6    5.94    0.44 
  -1   1   7    4.62    0.35 
  -1   1   7    5.30    0.36 
  -1   1   7    5.46    0.49 
  -1   1   7    5.58    0.59 
  -1   1   7    4.82    0.38 
  -1   1   7    4.61    0.40 
  -1   1   7    4.38    0.47 
  -1   1   7    4.83    0.46 
  -1   1   7    5.21    0.56 
  -1   1   7    5.21    0.47 
  -1   1   8    2.68    0.36 
  -1   1   8    2.44    0.39 
  -1   1   8    2.32    0.57 
  -1   1   8    2.26    0.43 
  -1   1   8    2.62    0.35 
  -1   1   8    2.33    0.31 
  -1   1   8    2.33    0.49 
  -1   1   8    2.63    0.43 
  -1   1   9    6.52    0.48 
  -1   1   9    6.95    0.49 
  -1   1   9    5.67    0.38 
  -1   1   9    7.17    0.44 
  -1   1   9    6.43    0.59 
  -1   1   9    5.38    0.66 
  -1   1  10   33.89    0.80 
  -1   1  10   34.23    0.92 
  -1   1  11    1.77    0.33 
  -1   1  11    1.95    0.28 
  -1   1  11    1.96    0.27 
  -1   1  11    2.15    0.34 
  -1   2 -11   18.39    0.63 
  -1   2 -11   18.67    0.63 
  -1   2 -11   19.37    0.61 
  -1   2 -11   18.60    0.64 
  -1   2 -11   19.21    0.63 
  -1   2 -11   19.58    0.62 
  -1   2 -10   15.11    0.69 
  -1   2 -10   16.07    0.69 
  -1   2 -10   15.77    0.66 
  -1   2 -10   15.77    0.66 
  -1   2 -10   15.81    0.70 
  -1   2 -10   16.07    0.71 
  -1   2 -10   16.23    0.71 
  -1   2 -10   14.64    0.69 
  -1   2 -10   12.92    0.85 
  -1   2 -10   13.73    0.85 
  -1   2 -10   16.43    0.95 
  -1   2 -10   14.67    0.90 
  -1   2  -9    1.57    0.53 
  -1   2  -9    1.69    0.53 
  -1   2  -9    2.29    0.47 
  -1   2  -9    2.04    0.47 
  -1   2  -9    2.21    0.49 
  -1   2  -9    2.62    0.49 
  -1   2  -9    2.77    0.50 
  -1   2  -9    2.45    0.48 
  -1   2  -9    2.90    0.50 
  -1   2  -9    1.98    0.49 
  -1   2  -9    2.81    0.62 
  -1   2  -9    2.11    0.57 
  -1   2  -9    2.11    0.48 
  -1   2  -9    2.34    0.59 
  -1   2  -9    1.75    0.58 
  -1   2  -9    3.11    0.66 
  -1   2  -8    2.78    0.68 
  -1   2  -8    3.12    0.53 
  -1   2  -8    2.76    0.52 
  -1   2  -8    2.92    0.56 
  -1   2  -8    2.82    0.51 
  -1   2  -8    2.94    0.57 
  -1   2  -8    3.07    0.52 
  -1   2  -8    1.99    0.62 
  -1   2  -8    2.09    0.54 
  -1   2  -8    2.03    0.62 
  -1   2  -8    2.03    0.63 
  -1   2  -8    2.55    0.61 
  -1   2  -8    1.77    0.56 
  -1   2  -8    1.88    0.52 
  -1   2  -7    5.73    0.49 
  -1   2  -7    7.19    0.59 
  -1   2  -7    8.73    0.71 
  -1   2  -7    6.12    0.57 
  -1   2  -7    8.98    0.73 
  -1   2  -7    6.89    0.57 
  -1   2  -7    7.11    0.57 
  -1   2  -7    5.79    0.65 
  -1   2  -7    6.31    0.67 
  -1   2  -7    7.37    0.79 
  -1   2  -7    6.82    0.74 
  -1   2  -7    6.48    0.75 
  -1   2  -7    5.92    0.72 
  -1   2  -7    6.46    0.67 
  -1   2  -7    6.89    0.57 
  -1   2  -6    4.83    0.60 
  -1   2  -6    3.78    0.46 
  -1   2  -6    4.68    0.59 
  -1   2  -6    3.13    0.43 
  -1   2  -6    3.57    0.45 
  -1   2  -6    3.91    0.46 
  -1   2  -6    3.49    0.59 
  -1   2  -6    3.80    0.51 
  -1   2  -6    3.70    0.50 
  -1   2  -6    3.31    0.57 
  -1   2  -6    3.71    0.58 
  -1   2  -6    3.00    0.52 
  -1   2  -6    4.44    0.58 
  -1   2  -5   20.74    0.98 
  -1   2  -5   20.48    0.95 
  -1   2  -5   19.56    0.97 
  -1   2  -5   17.02    0.86 
  -1   2  -5   17.42    0.88 
  -1   2  -5   17.57    0.79 
  -1   2  -5   17.58    0.94 
  -1   2  -5   17.42    0.81 
  -1   2  -5   15.69    0.77 
  -1   2  -5   16.35    0.88 
  -1   2  -5   17.33    0.82 
  -1   2  -5   16.65    0.88 
  -1   2  -4  385.34    3.78 
  -1   2  -4  386.85    3.79 
  -1   2  -4  278.51    3.45 
  -1   2  -4  293.94    3.50 
  -1   2  -4  294.64    3.50 
  -1   2  -4  320.60    3.84 
  -1   2  -4  322.67    3.85 
  -1   2  -4  366.00    4.17 
  -1   2  -4  301.89    3.51 
  -1   2  -4  346.63    4.11 
  -1   2  -4  345.61    4.12 
  -1   2  -4  329.78    3.91 
  -1   2  -3    2.07    0.53 
  -1   2  -3    1.91    0.54 
  -1   2  -3    1.68    0.41 
  -1   2  -3    1.56    0.49 
  -1   2  -3    1.58    0.35 
  -1   2  -3    1.54    0.34 
  -1   2  -2  132.96    1.78 
  -1   2  -2  134.49    1.49 
  -1   2  -1  204.25    2.18 
  -1   2  -1  199.73    2.16 
  -1   2  -1  256.28    2.64 
  -1   2  -1  251.86    2.62 
  -1   2  -1  232.99    2.36 
  -1   2  -1  224.03    2.49 
  -1   2   0  197.03    2.15 
  -1   2   0  201.90    2.18 
  -1   2   1   80.50    1.03 
  -1   2   1   97.39    1.27 
  -1   2   2  268.16    3.07 
  -1   2   2  269.96    3.08 
  -1   2   3    8.93    0.38 
  -1   2   3    9.45    0.54 
  -1   2   3    7.87    0.49 
  -1   2   3    8.68    0.46 
  -1   2   3    8.33    0.45 
  -1   2   4    0.02    0.39 
  -1   2   4    0.13    0.37 
  -1   2   4    0.26    0.27 
  -1   2   4    0.21    0.31 
  -1   2   4   -0.13    0.31 
  -1   2   4    0.35    0.31 
  -1   2   4    0.23    0.31 
  -1   2   5    1.07    0.30 
  -1   2   5    1.22    0.44 
  -1   2   5    0.85    0.40 
  -1   2   5    1.08    0.39 
  -1   2   5    1.09    0.39 
  -1   2   5    1.28    0.30 
  -1   2   5    1.15    0.32 
  -1   2   6    0.16    0.41 
  -1   2   6    0.19    0.41 
  -1   2   6   -0.01    0.41 
  -1   2   6    0.08    0.30 
  -1   2   6    0.27    0.33 
  -1   2   7  179.42    2.48 
  -1   2   7  187.21    2.52 
  -1   2   7  180.27    2.32 
  -1   2   7  168.38    2.34 
  -1   2   7  185.45    2.95 
  -1   2   7  174.97    2.51 
  -1   2   7  175.36    2.51 
  -1   2   8   21.85    0.81 
  -1   2   8   22.93    0.73 
  -1   2   8   23.01    0.73 
  -1   2   8   20.29    0.70 
  -1   2   8   22.90    1.04 
  -1   2   8   21.77    0.86 
  -1   2   8   20.89    0.84 
  -1   2   9   56.67    1.17 
  -1   2   9   55.12    1.66 
  -1   2  10   32.01    0.93 
  -1   2  10   28.22    0.77 
  -1   2  10   31.22    0.82 
  -1   2  10   28.20    0.73 
  -1   3 -11   12.64    0.47 
  -1   3 -11   11.83    0.47 
  -1   3 -11   11.76    0.46 
  -1   3 -10    0.24    0.32 
  -1   3 -10    0.35    0.34 
  -1   3 -10    0.54    0.36 
  -1   3 -10    0.14    0.34 
  -1   3 -10    0.29    0.35 
  -1   3 -10    0.42    0.36 
  -1   3 -10    0.38    0.36 
  -1   3 -10    0.55    0.48 
  -1   3 -10    0.45    0.39 
  -1   3  -9  179.99    2.48 
  -1   3  -9  176.19    2.41 
  -1   3  -9  175.30    2.42 
  -1   3  -9  175.45    2.43 
  -1   3  -9  166.40    2.49 
  -1   3  -9  165.98    2.49 
  -1   3  -9  145.80    2.90 
  -1   3  -9  135.86    2.74 
  -1   3  -9  144.12    2.78 
  -1   3  -9  156.37    3.00 
  -1   3  -9  132.71    2.51 
  -1   3  -9  175.74    2.54 
  -1   3  -8   14.61    0.75 
  -1   3  -8   11.24    0.61 
  -1   3  -8   16.24    0.78 
  -1   3  -8   12.60    0.75 
  -1   3  -8   13.29    0.76 
  -1   3  -8   14.64    0.75 
  -1   3  -8   14.34    0.73 
  -1   3  -8   14.41    0.74 
  -1   3  -8   13.03    0.75 
  -1   3  -8   11.14    0.91 
  -1   3  -8   10.58    0.82 
  -1   3  -8   12.32    0.80 
  -1   3  -8   11.06    0.85 
  -1   3  -8   10.16    0.78 
  -1   3  -8    8.36    0.76 
  -1   3  -7    8.42    0.57 
  -1   3  -7   11.85    0.70 
  -1   3  -7    9.39    0.73 
  -1   3  -7   10.09    0.72 
  -1   3  -7   11.44    0.67 
  -1   3  -7   11.07    0.66 
  -1   3  -7   11.28    0.67 
  -1   3  -7    9.91    0.64 
  -1   3  -7   10.47    0.69 
  -1   3  -7   11.02    0.87 
  -1   3  -7    9.86    0.83 
  -1   3  -7    8.65    0.77 
  -1   3  -7   10.38    0.77 
  -1   3  -7    8.59    0.77 
  -1   3  -7    8.32    0.70 
  -1   3  -7    7.92    0.69 
  -1   3  -6    8.74    0.54 
  -1   3  -6   11.10    0.64 
  -1   3  -6    9.98    0.69 
  -1   3  -6   10.64    0.63 
  -1   3  -6   10.34    0.70 
  -1   3  -6   10.38    0.61 
  -1   3  -6   11.06    0.62 
  -1   3  -6   10.56    0.62 
  -1   3  -6   11.70    0.83 
  -1   3  -6   10.84    0.80 
  -1   3  -6    8.63    0.65 
  -1   3  -6    8.33    0.66 
  -1   3  -6   10.33    0.75 
  -1   3  -6   10.26    0.75 
  -1   3  -6   10.39    0.74 
  -1   3  -5    5.18    0.45 
  -1   3  -5    5.01    0.46 
  -1   3  -5    6.50    0.55 
  -1   3  -5    5.25    0.46 
  -1   3  -5    6.16    0.55 
  -1   3  -5    5.81    0.66 
  -1   3  -5    5.58    0.66 
  -1   3  -5    4.31    0.47 
  -1   3  -5    4.60    0.49 
  -1   3  -5    5.54    0.59 
  -1   3  -5    5.49    0.58 
  -1   3  -4  211.86    2.70 
  -1   3  -4  212.73    2.70 
  -1   3  -4  247.04    2.93 
  -1   3  -4  248.96    2.93 
  -1   3  -4  209.96    2.69 
  -1   3  -4  236.75    3.30 
  -1   3  -4  235.36    3.20 
  -1   3  -4  215.84    2.89 
  -1   3  -4  212.19    2.89 
  -1   3  -4  232.57    3.20 
  -1   3  -3    1.24    0.31 
  -1   3  -3    1.34    0.31 
  -1   3  -3    1.24    0.33 
  -1   3  -3    1.33    0.33 
  -1   3  -3    1.66    0.41 
  -1   3  -2  149.25    2.20 
  -1   3  -2  158.59    2.09 
  -1   3  -2  169.14    1.96 
  -1   3  -2  150.37    1.97 
  -1   3  -2  158.86    2.24 
  -1   3  -2  162.21    2.27 
  -1   3  -1   32.74    0.82 
  -1   3  -1   34.44    0.74 
  -1   3  -1   39.29    1.01 
  -1   3  -1   37.77    0.83 
  -1   3  -1   39.08    1.01 
  -1   3   0  235.77    2.90 
  -1   3   0  240.30    2.94 
  -1   3   1  636.64    6.27 
  -1   3   1  600.30    5.95 
  -1   3   2  153.52    2.22 
  -1   3   2  154.62    2.23 
  -1   3   2  170.63    2.01 
  -1   3   2  174.78    2.17 
  -1   3   2  167.06    2.31 
  -1   3   3   88.49    1.43 
  -1   3   3  112.83    1.77 
  -1   3   3  110.85    1.52 
  -1   3   3  110.04    1.52 
  -1   3   3  103.02    1.73 
  -1   3   3  103.44    1.74 
  -1   3   3   97.21    1.47 
  -1   3   3   97.94    1.82 
  -1   3   4    3.48    0.47 
  -1   3   4    3.27    0.50 
  -1   3   4    3.30    0.36 
  -1   3   4    2.72    0.41 
  -1   3   4    3.24    0.41 
  -1   3   4    3.55    0.40 
  -1   3   4    3.43    0.39 
  -1   3   5   29.30    0.84 
  -1   3   5   28.83    0.84 
  -1   3   5   25.97    0.78 
  -1   3   5   26.01    0.97 
  -1   3   5   28.18    1.07 
  -1   3   5   28.98    0.72 
  -1   3   5   31.02    0.84 
  -1   3   5   26.92    1.00 
  -1   3   5   26.78    1.00 
  -1   3   6   88.20    1.49 
  -1   3   6   95.93    1.53 
  -1   3   6   96.63    1.71 
  -1   3   6   97.41    1.72 
  -1   3   6   83.91    1.57 
  -1   3   6   87.15    1.55 
  -1   3   6   91.62    1.46 
  -1   3   6   96.18    2.14 
  -1   3   6   89.20    1.99 
  -1   3   6   95.70    2.11 
  -1   3   6   95.77    2.11 
  -1   3   6   98.64    1.57 
  -1   3   6   98.30    1.80 
  -1   3   7  253.07    3.10 
  -1   3   7  247.93    3.89 
  -1   3   7  261.63    4.09 
  -1   3   7  263.82    4.08 
  -1   3   7  261.56    4.07 
  -1   3   7  242.96    3.11 
  -1   3   7  258.15    3.14 
  -1   3   7  262.64    3.25 
  -1   3   8  215.70    2.76 
  -1   3   8  205.42    3.51 
  -1   3   8  203.02    3.26 
  -1   3   8  203.86    2.75 
  -1   3   8  208.46    2.73 
  -1   3   9    2.26    0.41 
  -1   3   9    1.71    0.43 
  -1   3   9    2.03    0.44 
  -1   3   9    1.72    0.38 
  -1   3   9    1.73    0.35 
  -1   3  10    1.60    0.32 
  -1   3  10    1.73    0.36 
  -1   3  11    0.06    0.24 
  -1   4 -11    8.48    0.35 
  -1   4 -10   27.99    0.74 
  -1   4 -10   26.86    0.72 
  -1   4 -10   27.54    0.73 
  -1   4 -10   28.27    0.79 
  -1   4 -10   28.12    0.74 
  -1   4  -9  282.59    3.36 
  -1   4  -9  276.68    3.33 
  -1   4  -9  272.95    3.31 
  -1   4  -9  274.02    3.26 
  -1   4  -9  272.21    3.35 
  -1   4  -9  273.53    3.34 
  -1   4  -9  269.45    3.32 
  -1   4  -8    0.19    0.41 
  -1   4  -8    0.14    0.52 
  -1   4  -8    0.47    0.50 
  -1   4  -8    0.38    0.44 
  -1   4  -8    0.35    0.41 
  -1   4  -8    0.20    0.41 
  -1   4  -8    0.52    0.39 
  -1   4  -8    0.46    0.44 
  -1   4  -8    0.42    0.40 
  -1   4  -8    0.46    0.44 
  -1   4  -7   18.78    0.81 
  -1   4  -7   18.05    0.81 
  -1   4  -7   16.84    0.98 
  -1   4  -7   17.02    1.03 
  -1   4  -7   20.68    0.84 
  -1   4  -7   21.09    0.84 
  -1   4  -7   17.71    0.88 
  -1   4  -7   16.36    0.87 
  -1   4  -7   19.52    0.82 
  -1   4  -7   16.73    0.77 
  -1   4  -7   15.80    0.71 
  -1   4  -7   17.84    0.99 
  -1   4  -6   26.64    0.92 
  -1   4  -6   26.02    0.92 
  -1   4  -6   26.77    1.01 
  -1   4  -6   26.08    1.00 
  -1   4  -6   27.78    0.93 
  -1   4  -6   28.40    0.93 
  -1   4  -6   28.16    0.92 
  -1   4  -6   25.72    1.16 
  -1   4  -6   23.85    1.10 
  -1   4  -6   19.81    0.71 
  -1   4  -6   22.25    0.84 
  -1   4  -6   22.79    0.82 
  -1   4  -6   26.40    1.15 
  -1   4  -5  142.30    2.12 
  -1   4  -5  143.76    2.12 
  -1   4  -5  146.95    2.13 
  -1   4  -5  140.55    2.56 
  -1   4  -5  144.87    2.61 
  -1   4  -5  142.37    2.62 
  -1   4  -4    2.47    0.39 
  -1   4  -4    2.74    0.38 
  -1   4  -4    2.86    0.39 
  -1   4  -4    2.18    0.35 
  -1   4  -4    2.00    0.35 
  -1   4  -4    1.89    0.36 
  -1   4  -4    3.16    0.51 
  -1   4  -4    2.08    0.47 
  -1   4  -3  260.13    3.09 
  -1   4  -3  250.57    3.06 
  -1   4  -3  280.30    3.09 
  -1   4  -3  255.36    3.08 
  -1   4  -3  271.22    3.83 
  -1   4  -3  271.78    3.07 
  -1   4  -3  270.17    3.79 
  -1   4  -3  248.54    3.55 
  -1   4  -3  269.74    3.67 
  -1   4  -2   81.05    1.33 
  -1   4  -2   82.57    1.35 
  -1   4  -2   82.88    1.36 
  -1   4  -2   81.10    1.31 
  -1   4  -2   79.89    1.30 
  -1   4  -2   86.24    1.36 
  -1   4  -2   91.97    1.85 
  -1   4  -2   95.97    1.50 
  -1   4  -2   88.38    1.82 
  -1   4  -2   75.58    1.56 
  -1   4  -1  172.12    2.17 
  -1   4  -1  172.25    2.17 
  -1   4  -1  181.59    2.16 
  -1   4  -1  204.11    2.61 
  -1   4  -1  190.96    2.81 
  -1   4  -1  192.50    2.83 
  -1   4  -1  171.73    2.19 
  -1   4  -1  170.77    2.18 
  -1   4  -1  178.33    2.21 
  -1   4   0  147.59    1.89 
  -1   4   0  147.88    1.88 
  -1   4   0  134.40    1.82 
  -1   4   0  148.05    1.84 
  -1   4   0  136.82    1.86 
  -1   4   0  158.80    2.41 
  -1   4   0  166.67    2.48 
  -1   4   0  133.55    1.82 
  -1   4   1  133.28    1.78 
  -1   4   1  132.17    1.72 
  -1   4   1  131.87    1.79 
  -1   4   1  119.37    1.70 
  -1   4   1  117.51    1.69 
  -1   4   1  135.45    2.07 
  -1   4   2  177.28    2.29 
  -1   4   2  170.87    2.62 
  -1   4   2  177.70    2.16 
  -1   4   2  178.01    2.17 
  -1   4   2  166.80    2.56 
  -1   4   2  168.49    2.58 
  -1   4   3    0.99    0.31 
  -1   4   3    1.31    0.45 
  -1   4   3    1.61    0.35 
  -1   4   3    1.53    0.34 
  -1   4   3    1.39    0.34 
  -1   4   3    1.30    0.35 
  -1   4   4    8.95    0.55 
  -1   4   4    9.37    0.55 
  -1   4   4    8.82    0.62 
  -1   4   4    8.43    0.61 
  -1   4   4    9.74    0.67 
  -1   4   4   10.04    0.59 
  -1   4   5   77.43    1.47 
  -1   4   5   69.56    1.19 
  -1   4   5   75.21    1.69 
  -1   4   5   74.06    1.82 
  -1   4   5   76.66    1.50 
  -1   4   5   76.02    1.51 
  -1   4   5   72.56    1.78 
  -1   4   5   75.29    1.81 
  -1   4   5   71.43    1.30 
  -1   4   5   78.24    1.38 
  -1   4   6    5.85    0.57 
  -1   4   6    6.39    0.43 
  -1   4   6    6.60    0.69 
  -1   4   6    7.29    0.77 
  -1   4   6    7.06    0.62 
  -1   4   6    6.81    0.55 
  -1   4   6    5.75    0.47 
  -1   4   6    6.18    0.71 
  -1   4   6    6.13    0.70 
  -1   4   6    7.09    0.61 
  -1   4   6    7.01    0.61 
  -1   4   7  293.73    3.72 
  -1   4   7  290.66    3.71 
  -1   4   7  285.06    3.42 
  -1   4   7  259.51    3.18 
  -1   4   7  267.84    3.33 
  -1   4   7  296.14    3.42 
  -1   4   7  268.94    3.36 
  -1   4   7  274.45    4.35 
  -1   4   7  272.80    4.35 
  -1   4   7  304.41    3.43 
  -1   4   7  283.08    4.12 
  -1   4   8   31.84    0.97 
  -1   4   8   33.06    1.11 
  -1   4   8   34.57    1.12 
  -1   4   8   26.51    0.86 
  -1   4   8   28.54    0.88 
  -1   4   9    7.19    0.47 
  -1   4   9    6.25    0.51 
  -1   4  10    6.95    0.42 
  -1   4  11    0.93    0.19 
  -1   5 -10    7.83    0.40 
  -1   5 -10    6.51    0.37 
  -1   5  -9   35.05    0.83 
  -1   5  -9   32.98    0.86 
  -1   5  -9   32.59    0.85 
  -1   5  -9   34.36    0.83 
  -1   5  -9   35.03    0.84 
  -1   5  -8   14.36    0.65 
  -1   5  -8   13.44    0.63 
  -1   5  -8   13.88    0.59 
  -1   5  -8   13.48    0.67 
  -1   5  -8   14.12    0.68 
  -1   5  -8   12.91    0.60 
  -1   5  -8   12.63    0.60 
  -1   5  -8   10.57    0.81 
  -1   5  -8   10.59    0.73 
  -1   5  -7    6.35    0.57 
  -1   5  -7    7.07    0.54 
  -1   5  -7    7.23    0.54 
  -1   5  -7    7.33    0.56 
  -1   5  -7    6.74    0.76 
  -1   5  -7    7.21    0.58 
  -1   5  -7    6.93    0.53 
  -1   5  -7    5.94    0.72 
  -1   5  -7    6.23    0.69 
  -1   5  -6    0.42    0.39 
  -1   5  -6    0.11    0.47 
  -1   5  -6    0.50    0.50 
  -1   5  -6    0.28    0.37 
  -1   5  -6    0.36    0.38 
  -1   5  -6    0.30    0.39 
  -1   5  -6    0.82    0.51 
  -1   5  -6    0.78    0.51 
  -1   5  -6    0.34    0.50 
  -1   5  -6    0.54    0.41 
  -1   5  -5    8.81    0.50 
  -1   5  -5    9.65    0.76 
  -1   5  -5    8.42    0.54 
  -1   5  -5    9.19    0.64 
  -1   5  -5    9.42    0.61 
  -1   5  -5    6.43    0.84 
  -1   5  -5    8.68    0.60 
  -1   5  -5    9.50    0.61 
  -1   5  -5   10.16    0.62 
  -1   5  -5    9.14    0.81 
  -1   5  -5   10.31    0.81 
  -1   5  -5    6.06    0.68 
  -1   5  -5    6.01    0.67 
  -1   5  -4   44.20    1.04 
  -1   5  -4   52.69    1.21 
  -1   5  -4   31.37    1.59 
  -1   5  -4   50.78    1.20 
  -1   5  -4   51.86    1.19 
  -1   5  -4   53.68    1.20 
  -1   5  -4   59.47    1.34 
  -1   5  -4   52.24    1.12 
  -1   5  -4   54.39    1.57 
  -1   5  -4   49.64    1.50 
  -1   5  -4   42.80    1.50 
  -1   5  -4   43.52    1.50 
  -1   5  -3   84.64    1.53 
  -1   5  -3   76.74    1.37 
  -1   5  -3   84.29    1.54 
  -1   5  -3   84.64    1.54 
  -1   5  -3   85.32    1.54 
  -1   5  -3   80.60    1.50 
  -1   5  -3   80.77    1.50 
  -1   5  -3   88.72    1.50 
  -1   5  -3   80.37    1.98 
  -1   5  -3   78.83    1.98 
  -1   5  -3   75.21    1.81 
  -1   5  -2    3.47    0.38 
  -1   5  -2    3.75    0.39 
  -1   5  -2    4.78    0.39 
  -1   5  -2    4.27    0.42 
  -1   5  -2    4.19    0.59 
  -1   5  -2    4.18    0.58 
  -1   5  -2    4.18    0.42 
  -1   5  -2    4.21    0.42 
  -1   5  -2    4.65    0.44 
  -1   5  -1   57.10    1.16 
  -1   5  -1   56.83    1.07 
  -1   5  -1   54.98    1.11 
  -1   5  -1   52.45    1.12 
  -1   5  -1   55.64    1.57 
  -1   5  -1   55.45    1.59 
  -1   5  -1   51.09    1.09 
  -1   5  -1   52.21    1.10 
  -1   5   0   44.81    1.01 
  -1   5   0   49.53    1.07 
  -1   5   0   50.72    1.07 
  -1   5   0   45.35    1.01 
  -1   5   0   46.18    1.07 
  -1   5   0   44.41    1.02 
  -1   5   0   48.77    1.44 
  -1   5   0   47.65    1.43 
  -1   5   1    2.74    0.39 
  -1   5   1    2.23    0.34 
  -1   5   1    2.22    0.36 
  -1   5   1    2.02    0.33 
  -1   5   1    2.87    0.49 
  -1   5   1    1.84    0.33 
  -1   5   2   38.31    1.00 
  -1   5   2   33.85    0.94 
  -1   5   2   35.88    1.20 
  -1   5   2   36.76    1.21 
  -1   5   2   35.45    1.24 
  -1   5   3    4.86    0.53 
  -1   5   3    4.71    0.54 
  -1   5   3    5.66    0.50 
  -1   5   3    4.73    0.42 
  -1   5   3    4.14    0.50 
  -1   5   3    3.88    0.44 
  -1   5   3    5.25    0.46 
  -1   5   3    5.77    0.47 
  -1   5   3    5.30    0.66 
  -1   5   3    4.28    0.63 
  -1   5   4    0.96    0.33 
  -1   5   4    0.94    0.46 
  -1   5   4    0.66    0.40 
  -1   5   4    1.23    0.43 
  -1   5   4    0.30    0.54 
  -1   5   4    0.77    0.41 
  -1   5   4    1.26    0.42 
  -1   5   5   17.53    0.80 
  -1   5   5   17.40    0.79 
  -1   5   5   16.99    0.73 
  -1   5   5   16.61    0.95 
  -1   5   5   17.03    0.77 
  -1   5   5   17.79    0.83 
  -1   5   5   14.07    0.69 
  -1   5   5   14.35    0.90 
  -1   5   5   15.96    0.93 
  -1   5   6   27.36    0.98 
  -1   5   6   27.91    0.99 
  -1   5   6   29.13    0.95 
  -1   5   6   28.07    1.23 
  -1   5   6   25.87    1.22 
  -1   5   6   24.73    1.20 
  -1   5   6   29.91    1.00 
  -1   5   6   23.36    0.84 
  -1   5   6   25.88    0.95 
  -1   5   7    2.04    0.42 
  -1   5   7    2.23    0.49 
  -1   5   7    2.23    0.48 
  -1   5   7    2.95    0.67 
  -1   5   7    1.99    0.48 
  -1   5   8   11.03    0.60 
  -1   5   8   10.22    0.62 
  -1   5   8    9.71    0.64 
  -1   5   9    0.32    0.29 
  -1   5  10    8.48    0.36 
  -1   6  -9    3.91    0.32 
  -1   6  -9    3.51    0.32 
  -1   6  -8    2.04    0.30 
  -1   6  -8    2.12    0.31 
  -1   6  -7    2.42    0.55 
  -1   6  -7    2.84    0.39 
  -1   6  -7    2.85    0.40 
  -1   6  -6    0.24    0.32 
  -1   6  -6    0.27    0.32 
  -1   6  -6    0.24    0.37 
  -1   6  -6    0.07    0.35 
  -1   6  -6    0.13    0.43 
  -1   6  -6    0.32    0.43 
  -1   6  -5    0.13    0.39 
  -1   6  -5    0.03    0.40 
  -1   6  -5    0.34    0.41 
  -1   6  -5    0.02    0.33 
  -1   6  -5    0.38    0.34 
  -1   6  -5    0.12    0.44 
  -1   6  -5    0.31    0.44 
  -1   6  -5   -0.12    0.39 
  -1   6  -5    0.33    0.39 
  -1   6  -5    0.05    0.45 
  -1   6  -4    2.53    0.47 
  -1   6  -4    2.82    0.48 
  -1   6  -4    2.61    0.48 
  -1   6  -4    3.14    0.50 
  -1   6  -4    2.56    0.48 
  -1   6  -4    2.26    0.43 
  -1   6  -4    2.27    0.42 
  -1   6  -4    2.64    0.41 
  -1   6  -4    2.14    0.55 
  -1   6  -4    2.94    0.57 
  -1   6  -4    0.59    0.56 
  -1   6  -4    2.10    0.60 
  -1   6  -3   17.93    0.76 
  -1   6  -3   20.97    0.86 
  -1   6  -3   16.58    0.86 
  -1   6  -3   17.98    0.72 
  -1   6  -3   15.86    0.77 
  -1   6  -3   14.77    1.00 
  -1   6  -3   14.13    1.00 
  -1   6  -3   18.71    0.80 
  -1   6  -3   18.71    0.80 
  -1   6  -2   23.83    0.84 
  -1   6  -2   23.54    0.84 
  -1   6  -2   23.74    0.94 
  -1   6  -2   27.17    0.88 
  -1   6  -2   18.91    0.78 
  -1   6  -2   22.86    0.85 
  -1   6  -2   22.59    1.17 
  -1   6  -2   22.44    1.14 
  -1   6  -2   25.20    0.88 
  -1   6  -1   19.50    0.76 
  -1   6  -1   20.80    0.72 
  -1   6  -1   20.42    0.77 
  -1   6  -1   22.62    0.91 
  -1   6  -1   22.69    0.82 
  -1   6  -1   19.33    0.77 
  -1   6  -1   20.88    1.10 
  -1   6  -1   21.13    1.12 
  -1   6  -1   21.01    0.83 
  -1   6  -1   22.11    0.84 
  -1   6   0   18.35    0.79 
  -1   6   0   18.59    0.79 
  -1   6   0   16.30    0.71 
  -1   6   0   19.34    0.75 
  -1   6   0   16.23    0.71 
  -1   6   0   19.15    0.78 
  -1   6   0   17.36    1.02 
  -1   6   0   17.25    1.01 
  -1   6   0   21.73    0.92 
  -1   6   1    1.59    0.52 
  -1   6   1    2.80    0.55 
  -1   6   1    1.90    0.65 
  -1   6   1    4.32    0.50 
  -1   6   1    3.90    0.59 
  -1   6   1    3.35    0.59 
  -1   6   1    4.66    0.51 
  -1   6   2    0.34    0.51 
  -1   6   2   -0.03    0.41 
  -1   6   2    0.15    0.49 
  -1   6   2   -0.04    0.44 
  -1   6   2   -0.02    0.53 
  -1   6   2    0.01    0.58 
  -1   6   3    3.71    0.53 
  -1   6   3    2.98    0.54 
  -1   6   3    2.71    0.54 
  -1   6   3    2.91    0.57 
  -1   6   3    2.01    0.52 
  -1   6   3    2.88    0.43 
  -1   6   3    3.85    0.64 
  -1   6   4   23.22    0.83 
  -1   6   4   34.28    1.11 
  -1   6   4   11.96    0.90 
  -1   6   4   25.35    0.98 
  -1   6   4   22.66    1.13 
  -1   6   4   21.67    1.12 
  -1   6   4   27.03    0.87 
  -1   6   4   26.22    0.87 
  -1   6   5   79.85    2.15 
  -1   6   5   80.72    2.15 
  -1   6   5   94.82    1.72 
  -1   6   5   92.13    1.72 
  -1   6   5   96.55    2.05 
  -1   6   5   88.98    1.66 
  -1   6   6    5.11    0.53 
  -1   6   6    5.00    0.51 
  -1   6   6    5.36    0.54 
  -1   6   6    5.64    0.49 
  -1   6   7   18.15    0.74 
  -1   6   7   17.95    0.75 
  -1   6   7   18.88    0.71 
  -1   6   8   29.24    1.11 
  -1   6   8   35.84    0.84 
  -1   6   9    3.18    0.28 
  -1   7  -7    0.09    0.25 
  -1   7  -6    0.01    0.30 
  -1   7  -6   -0.01    0.35 
  -1   7  -6    0.18    0.31 
  -1   7  -6    0.04    0.31 
  -1   7  -5   13.68    0.65 
  -1   7  -5   13.07    0.65 
  -1   7  -5   12.20    0.65 
  -1   7  -5   11.77    0.56 
  -1   7  -5   12.85    0.65 
  -1   7  -4    3.94    0.50 
  -1   7  -4    3.66    0.47 
  -1   7  -4    3.71    0.41 
  -1   7  -4    4.48    0.51 
  -1   7  -4    3.05    0.49 
  -1   7  -3   11.30    0.62 
  -1   7  -3   11.73    0.66 
  -1   7  -3    9.84    0.66 
  -1   7  -3   11.15    0.65 
  -1   7  -2    3.77    0.53 
  -1   7  -2    3.35    0.48 
  -1   7  -2    4.09    0.48 
  -1   7  -2    3.17    0.65 
  -1   7  -2    3.37    0.50 
  -1   7  -1   -0.20    0.39 
  -1   7  -1    0.28    0.47 
  -1   7  -1    0.06    0.49 
  -1   7  -1   -0.02    0.38 
  -1   7  -1    0.31    0.39 
  -1   7  -1   -0.25    0.62 
  -1   7  -1    0.18    0.46 
  -1   7  -1   -0.03    0.47 
  -1   7   0   22.10    0.84 
  -1   7   0   18.15    1.11 
  -1   7   0   18.10    1.11 
  -1   7   0   23.67    0.90 
  -1   7   0   23.34    0.95 
  -1   7   0   21.15    0.79 
  -1   7   1    4.41    0.50 
  -1   7   1    4.29    0.63 
  -1   7   1    2.93    0.61 
  -1   7   1    3.13    0.62 
  -1   7   1    5.02    0.53 
  -1   7   1    4.55    0.73 
  -1   7   1    4.48    0.51 
  -1   7   2    0.56    0.61 
  -1   7   2    0.05    0.61 
  -1   7   2    0.92    0.55 
  -1   7   2    0.15    0.41 
  -1   7   3    3.66    0.66 
  -1   7   3    3.48    0.67 
  -1   7   3    3.96    0.62 
  -1   7   3    3.06    0.52 
  -1   7   4   -0.04    0.58 
  -1   7   4    0.60    0.59 
  -1   7   4    0.52    0.43 
  -1   7   5    5.10    0.64 
  -1   7   5    4.99    0.67 
  -1   7   6    0.42    0.51 
  -1   7   7    0.61    0.49 
  -1   7   8    1.32    0.35 
  -1   8  -5    1.32    0.31 
  -1   8  -5    1.52    0.29 
  -1   8  -5    1.36    0.32 
  -1   8  -4   17.76    0.71 
  -1   8  -4   17.27    0.70 
  -1   8  -3    5.90    0.51 
  -1   8  -3    6.70    0.52 
  -1   8  -2    0.30    0.41 
  -1   8  -2    0.21    0.45 
  -1   8  -2    0.58    0.35 
  -1   8  -2    0.30    0.34 
  -1   8  -2    0.37    0.34 
  -1   8  -1    7.34    0.54 
  -1   8  -1    7.18    0.66 
  -1   8  -1    7.16    0.54 
  -1   8   0    0.03    0.36 
  -1   8   0    0.54    0.57 
  -1   8   1    0.15    0.37 
  -1   8   1    0.01    0.47 
  -1   8   1    0.09    0.34 
  -1   8   1   -0.17    0.55 
  -1   8   2    0.67    0.39 
  -1   8   2    1.61    0.56 
  -1   8   2    1.39    0.61 
  -1   8   3   20.03    0.78 
  -1   8   3   22.62    0.82 
  -1   8   3   22.79    0.89 
  -1   8   4    1.06    0.36 
  -1   8   4    1.62    0.50 
  -1   8   5    0.69    0.45 
  -1   8   6    0.85    0.38 
  -1   9  -1   10.46    0.54 
  -1   9   0    2.89    0.42 
  -1   9   1    1.48    0.39 
  -1   9   1    1.32    0.43 
  -1   9   2   16.85    0.62 
  -1   9   2   18.57    0.63 
  -1   9   3    0.53    0.37 
  -1   9   4    9.63    0.43 
   0  -9  -4    0.35    0.36 
   0  -9  -3   -0.05    0.38 
   0  -9  -2    0.31    0.25 
   0  -9  -2    0.15    0.25 
   0  -9  -1    1.58    0.30 
   0  -9  -1    1.75    0.33 
   0  -9  -1    1.11    0.30 
   0  -9  -1    1.24    0.29 
   0  -9   0    1.26    0.32 
   0  -9   0    1.01    0.28 
   0  -9   0    1.31    0.28 
   0  -9   0    1.17    0.28 
   0  -9   1   10.25    0.47 
   0  -9   1   10.13    0.47 
   0  -9   1   10.50    0.46 
   0  -9   1    9.94    0.49 
   0  -9   1   10.42    0.51 
   0  -9   2    0.12    0.24 
   0  -9   2   -0.04    0.26 
   0  -9   2    0.27    0.28 
   0  -9   2    0.19    0.28 
   0  -9   2   -0.02    0.25 
   0  -9   3    1.60    0.25 
   0  -9   3    2.33    0.29 
   0  -9   4    3.21    0.25 
   0  -8  -6   10.17    0.43 
   0  -8  -5    9.53    0.51 
   0  -8  -5    9.56    0.53 
   0  -8  -4   32.83    0.94 
   0  -8  -4   31.76    0.93 
   0  -8  -4   30.49    1.20 
   0  -8  -4   32.27    0.85 
   0  -8  -4   32.34    0.86 
   0  -8  -3    7.13    0.62 
   0  -8  -3   12.88    0.61 
   0  -8  -3   13.45    0.63 
   0  -8  -3   11.11    0.80 
   0  -8  -3   10.37    0.71 
   0  -8  -3    9.73    0.66 
   0  -8  -2    1.89    0.42 
   0  -8  -2    4.26    0.46 
   0  -8  -2    3.86    0.47 
   0  -8  -2    3.22    0.80 
   0  -8  -2    3.63    0.79 
   0  -8  -2    3.43    0.55 
   0  -8  -2    3.19    0.50 
   0  -8  -2    2.79    0.58 
   0  -8  -2    3.62    0.52 
   0  -8  -1   -0.05    0.58 
   0  -8  -1    0.48    0.41 
   0  -8  -1    0.05    0.62 
   0  -8  -1   -0.05    0.57 
   0  -8  -1    1.04    0.62 
   0  -8  -1    1.37    0.39 
   0  -8  -1    0.90    0.36 
   0  -8  -1    0.50    0.32 
   0  -8  -1    0.17    0.33 
   0  -8  -1    0.46    0.49 
   0  -8  -1    0.23    0.39 
   0  -8  -1    0.56    0.37 
   0  -8  -1    0.08    0.35 
   0  -8   0    0.66    0.39 
   0  -8   0    0.38    0.60 
   0  -8   0    0.46    0.57 
   0  -8   0    0.22    0.55 
   0  -8   0    0.14    0.32 
   0  -8   0    0.27    0.33 
   0  -8   0    0.25    0.38 
   0  -8   0    0.18    0.47 
   0  -8   0    0.33    0.37 
   0  -8   0    0.05    0.34 
   0  -8   1    3.70    0.50 
   0  -8   1    2.78    0.46 
   0  -8   1    3.13    0.38 
   0  -8   1    4.23    0.44 
   0  -8   1    3.50    0.43 
   0  -8   1    0.74    0.46 
   0  -8   1    0.95    0.48 
   0  -8   1    2.35    0.54 
   0  -8   1    0.57    0.42 
   0  -8   2   19.24    0.70 
   0  -8   2   17.36    0.88 
   0  -8   2   18.98    0.68 
   0  -8   2   19.52    0.74 
   0  -8   2   19.41    0.74 
   0  -8   2   10.85    0.74 
   0  -8   2   12.64    0.77 
   0  -8   2   14.84    0.96 
   0  -8   2   14.60    0.96 
   0  -8   2   18.59    0.87 
   0  -8   2   14.58    0.88 
   0  -8   2   20.41    0.75 
   0  -8   3    3.35    0.48 
   0  -8   3    3.39    0.39 
   0  -8   3    3.36    0.39 
   0  -8   3    3.73    0.42 
   0  -8   3    3.95    0.51 
   0  -8   3    2.33    0.49 
   0  -8   3    2.77    0.50 
   0  -8   3    3.09    0.50 
   0  -8   3    3.96    0.46 
   0  -8   3    3.41    0.34 
   0  -8   4   15.87    0.57 
   0  -8   4   15.68    0.80 
   0  -8   4   15.66    0.60 
   0  -8   4    7.27    0.66 
   0  -8   4    6.85    0.65 
   0  -8   4   19.24    0.65 
   0  -8   4   13.85    0.77 
   0  -8   4   14.92    0.77 
   0  -8   4   11.76    0.74 
   0  -8   5    0.29    0.28 
   0  -8   5    0.10    0.29 
   0  -8   5    0.34    0.33 
   0  -8   5    0.13    0.22 
   0  -8   5    0.36    0.26 
   0  -8   6    0.41    0.20 
   0  -8   6    0.30    0.21 
   0  -8   6    0.30    0.18 
   0  -8   7    0.54    0.13 
   0  -7  -8    0.18    0.24 
   0  -7  -8    0.05    0.29 
   0  -7  -7    1.40    0.36 
   0  -7  -7    0.88    0.42 
   0  -7  -7    0.98    0.34 
   0  -7  -7    0.97    0.34 
   0  -7  -7    1.24    0.30 
   0  -7  -7    1.34    0.39 
   0  -7  -6    0.34    0.41 
   0  -7  -6    0.25    0.32 
   0  -7  -6    0.13    0.39 
   0  -7  -6   -0.22    0.41 
   0  -7  -5    1.95    3.06 
   0  -7  -5    1.93    2.97 
   0  -7  -5    3.59    1.79 
   0  -7  -5    6.36    0.54 
   0  -7  -5    7.58    0.55 
   0  -7  -5    7.19    0.49 
   0  -7  -5    7.36    0.49 
   0  -7  -4    2.15    2.36 
   0  -7  -4    6.94    0.63 
   0  -7  -4    5.91    0.60 
   0  -7  -4    7.85    0.55 
   0  -7  -4    8.38    0.57 
   0  -7  -4    3.81    3.38 
   0  -7  -4    7.71    3.34 
   0  -7  -4    8.17    0.58 
   0  -7  -4    4.89    0.59 
   0  -7  -3    2.73    1.91 
   0  -7  -3    0.80    0.40 
   0  -7  -3    0.93    0.39 
   0  -7  -3    0.46    0.37 
   0  -7  -3    0.76    0.37 
   0  -7  -3    2.25    2.97 
   0  -7  -3    0.51    1.36 
   0  -7  -3   -0.42    3.01 
   0  -7  -3    0.12    0.47 
   0  -7  -3    0.88    0.48 
   0  -7  -3    0.12    0.36 
   0  -7  -2    3.33    0.61 
   0  -7  -2    2.09    0.47 
   0  -7  -2    1.71    0.47 
   0  -7  -2    3.75    0.41 
   0  -7  -2    2.77    0.41 
   0  -7  -2    2.09    1.87 
   0  -7  -2    4.28    1.03 
   0  -7  -2    5.96    1.90 
   0  -7  -2    3.63    0.55 
   0  -7  -2    4.13    1.56 
   0  -7  -2    3.69    0.56 
   0  -7  -2    3.54    0.59 
   0  -7  -1    9.90    0.82 
   0  -7  -1    9.06    0.56 
   0  -7  -1    8.96    0.56 
   0  -7  -1    4.54    0.63 
   0  -7  -1    3.23    0.64 
   0  -7  -1   12.87    1.51 
   0  -7  -1   11.88    1.49 
   0  -7  -1   10.33    1.02 
   0  -7  -1    8.93    1.09 
   0  -7  -1    9.46    0.77 
   0  -7  -1    9.39    0.76 
   0  -7   0    0.09    0.71 
   0  -7   0    0.37    0.39 
   0  -7   0    0.35    0.66 
   0  -7   0    0.23    0.31 
   0  -7   0    0.04    0.34 
   0  -7   0    0.13    0.36 
   0  -7   0    0.25    0.36 
   0  -7   0    0.59    0.41 
   0  -7   0    0.88    0.67 
   0  -7   0    0.33    0.40 
   0  -7   0    0.26    0.42 
   0  -7   1   19.78    0.96 
   0  -7   1   18.95    1.08 
   0  -7   1   16.70    0.94 
   0  -7   1   19.48    0.72 
   0  -7   1   13.48    0.79 
   0  -7   1   13.65    0.79 
   0  -7   1   23.48    0.88 
   0  -7   1   23.13    0.88 
   0  -7   1   20.37    1.00 
   0  -7   1   19.09    1.13 
   0  -7   2   23.67    0.78 
   0  -7   2   24.10    1.08 
   0  -7   2   25.59    0.83 
   0  -7   2   21.95    0.86 
   0  -7   2   16.30    0.86 
   0  -7   2   27.85    0.91 
   0  -7   2   29.24    0.94 
   0  -7   2   24.91    1.26 
   0  -7   2   25.05    1.26 
   0  -7   2   22.90    1.16 
   0  -7   2   23.34    1.06 
   0  -7   2   25.87    0.91 
   0  -7   2   23.50    1.17 
   0  -7   3    0.21    0.27 
   0  -7   3    0.39    0.39 
   0  -7   3    0.80    0.33 
   0  -7   3    0.07    0.34 
   0  -7   3    0.04    0.33 
   0  -7   3    0.55    0.54 
   0  -7   3    0.31    0.52 
   0  -7   3    0.35    0.44 
   0  -7   3    0.65    0.46 
   0  -7   3    0.28    0.38 
   0  -7   3    0.14    0.49 
   0  -7   3    0.25    0.39 
   0  -7   4   23.37    0.79 
   0  -7   4   20.39    1.07 
   0  -7   4   22.16    1.04 
   0  -7   4   22.31    0.78 
   0  -7   4   17.88    0.81 
   0  -7   4   19.36    0.83 
   0  -7   4   23.43    0.74 
   0  -7   4   23.70    0.75 
   0  -7   4   22.71    1.04 
   0  -7   4   26.59    0.86 
   0  -7   4   22.00    1.02 
   0  -7   4   22.51    1.02 
   0  -7   4   21.82    1.07 
   0  -7   4   19.33    1.07 
   0  -7   5    9.13    0.75 
   0  -7   5    6.21    0.57 
   0  -7   5    6.20    0.57 
   0  -7   5    8.08    0.74 
   0  -7   5   12.50    0.60 
   0  -7   5   11.21    0.56 
   0  -7   5   10.99    0.68 
   0  -7   5   10.51    0.66 
   0  -7   5   11.61    0.57 
   0  -7   6    2.66    0.36 
   0  -7   6    0.86    0.36 
   0  -7   6    0.82    0.34 
   0  -7   6    2.41    0.34 
   0  -7   6    2.64    0.33 
   0  -7   7    0.00    0.25 
   0  -7   7    0.13    0.25 
   0  -7   7    0.14    0.24 
   0  -7   7    0.11    0.21 
   0  -7   7   -0.10    0.22 
   0  -7   8    2.06    0.21 
   0  -7   8    1.85    0.24 
   0  -6  -9    3.08    0.38 
   0  -6  -9    3.72    0.35 
   0  -6  -9    3.81    0.37 
   0  -6  -8    2.66    0.50 
   0  -6  -8    2.38    0.42 
   0  -6  -8    2.90    0.40 
   0  -6  -8    2.88    0.43 
   0  -6  -7   22.34    1.09 
   0  -6  -7   22.77    0.77 
   0  -6  -7   22.18    0.87 
   0  -6  -6  198.66    2.90 
   0  -6  -6  215.40    3.42 
   0  -6  -6  218.83    2.78 
   0  -6  -6  195.28    3.72 
   0  -6  -5    8.60    1.01 
   0  -6  -5    9.33    0.82 
   0  -6  -5    9.69    0.57 
   0  -6  -5   10.17    0.59 
   0  -6  -5    8.66    0.81 
   0  -6  -5    9.88    0.63 
   0  -6  -4   44.52    1.68 
   0  -6  -4   49.33    1.15 
   0  -6  -4   49.26    1.18 
   0  -6  -4   50.07    1.19 
   0  -6  -4   47.85    1.43 
   0  -6  -4   45.53    1.38 
   0  -6  -4   47.99    1.59 
   0  -6  -4   48.92    1.27 
   0  -6  -3    1.08    0.48 
   0  -6  -3    1.86    0.39 
   0  -6  -3    1.27    0.36 
   0  -6  -3    1.50    0.36 
   0  -6  -3    1.31    0.41 
   0  -6  -3    1.47    0.42 
   0  -6  -3    1.24    0.63 
   0  -6  -2    0.68    0.39 
   0  -6  -2    0.39    0.36 
   0  -6  -2    0.64    0.30 
   0  -6  -2    0.53    0.31 
   0  -6  -2    0.73    1.91 
   0  -6  -2    0.94    0.36 
   0  -6  -2    0.55    0.33 
   0  -6  -1   66.65    1.52 
   0  -6  -1   74.26    1.30 
   0  -6  -1   74.94    1.32 
   0  -6  -1   59.09    1.35 
   0  -6  -1   59.30    1.38 
   0  -6  -1   69.93    2.31 
   0  -6  -1   13.64    3.19 
   0  -6  -1   17.55    3.16 
   0  -6  -1   74.42    1.80 
   0  -6  -1   75.68    1.78 
   0  -6  -1   40.84    2.67 
   0  -6  -1   75.36    1.76 
   0  -6   0   43.03    1.26 
   0  -6   0   45.17    0.98 
   0  -6   0   48.68    1.07 
   0  -6   0   48.32    1.07 
   0  -6   0   52.99    2.10 
   0  -6   0   45.97    1.38 
   0  -6   0   45.94    1.38 
   0  -6   0   54.22    1.77 
   0  -6   0   45.23    1.25 
   0  -6   0   49.22    1.41 
   0  -6   1   89.66    1.86 
   0  -6   1   96.08    2.16 
   0  -6   1   84.59    1.88 
   0  -6   1   84.30    1.88 
   0  -6   1   86.58    1.46 
   0  -6   1   87.79    1.88 
   0  -6   1   92.06    1.54 
   0  -6   1   89.04    1.49 
   0  -6   1   93.31    1.56 
   0  -6   1  105.06    1.74 
   0  -6   1  105.22    1.74 
   0  -6   1  108.31    2.44 
   0  -6   1   69.62    1.78 
   0  -6   1   94.52    1.94 
   0  -6   2   31.52    1.30 
   0  -6   2   25.65    0.77 
   0  -6   2   29.07    1.08 
   0  -6   2   23.65    0.76 
   0  -6   2   30.34    0.89 
   0  -6   2   31.65    0.91 
   0  -6   2   24.18    1.01 
   0  -6   2   23.91    1.00 
   0  -6   2   30.31    1.34 
   0  -6   2   25.94    1.14 
   0  -6   2   29.48    1.33 
   0  -6   2   22.97    0.99 
   0  -6   2   25.77    1.03 
   0  -6   3   27.64    1.08 
   0  -6   3   28.79    1.22 
   0  -6   3   28.38    0.84 
   0  -6   3   27.88    1.09 
   0  -6   3   27.54    0.82 
   0  -6   3   30.65    0.88 
   0  -6   3   30.51    0.88 
   0  -6   3   28.33    1.24 
   0  -6   3   26.73    1.05 
   0  -6   3   28.06    1.26 
   0  -6   3   26.74    1.11 
   0  -6   3   25.46    1.03 
   0  -6   3   27.92    1.10 
   0  -6   3   27.85    1.10 
   0  -6   3   23.38    1.04 
   0  -6   3   27.86    0.90 
   0  -6   4   87.15    1.92 
   0  -6   4   86.09    1.90 
   0  -6   4   74.11    1.58 
   0  -6   4   85.48    1.97 
   0  -6   4   89.05    1.55 
   0  -6   4   88.12    1.55 
   0  -6   4   79.12    1.42 
   0  -6   4   84.54    1.48 
   0  -6   4   89.82    1.51 
   0  -6   4   78.55    1.79 
   0  -6   4   87.74    2.06 
   0  -6   4   86.40    2.07 
   0  -6   4   76.55    1.77 
   0  -6   4   86.57    1.95 
   0  -6   4   77.37    1.98 
   0  -6   4   88.28    1.58 
   0  -6   5    0.58    0.33 
   0  -6   5    0.62    0.32 
   0  -6   5    1.07    0.35 
   0  -6   5    0.50    0.27 
   0  -6   5    0.48    0.46 
   0  -6   5    0.50    0.48 
   0  -6   5    0.98    0.43 
   0  -6   5    0.59    0.34 
   0  -6   5    0.18    0.32 
   0  -6   6   39.22    1.13 
   0  -6   6   40.85    1.42 
   0  -6   6   44.56    1.44 
   0  -6   6   46.30    1.08 
   0  -6   6   47.77    1.03 
   0  -6   6   46.38    1.03 
   0  -6   6   45.28    1.08 
   0  -6   6   39.05    1.39 
   0  -6   6   30.89    1.46 
   0  -6   6   56.94    1.16 
   0  -6   6   52.10    1.14 
   0  -6   7    5.84    0.58 
   0  -6   7    6.67    0.59 
   0  -6   7    7.21    0.46 
   0  -6   7    6.97    0.45 
   0  -6   7    8.00    0.48 
   0  -6   7    5.60    0.57 
   0  -6   7    6.31    0.59 
   0  -6   7    6.18    0.60 
   0  -6   8   13.72    0.55 
   0  -6   8   14.71    0.55 
   0  -6   8   14.72    0.51 
   0  -6   8   14.43    0.58 
   0  -6   8   13.88    0.68 
   0  -6   9    2.82    0.28 
   0  -6   9    2.87    0.28 
   0  -6   9    3.17    0.29 
   0  -6   9    3.10    0.25 
   0  -6   9    3.15    0.29 
   0  -5 -11    3.53    0.22 
   0  -5  -9    0.24    0.33 
   0  -5  -9    0.51    0.36 
   0  -5  -9    0.61    0.38 
   0  -5  -9    0.38    0.44 
   0  -5  -9    0.38    0.35 
   0  -5  -8    9.55    0.62 
   0  -5  -8    8.86    0.76 
   0  -5  -8    7.32    0.70 
   0  -5  -8    8.24    0.60 
   0  -5  -7   81.62    1.94 
   0  -5  -7  107.61    1.91 
   0  -5  -7   83.70    2.78 
   0  -5  -7   93.19    2.27 
   0  -5  -7  104.12    1.73 
   0  -5  -7  108.72    2.35 
   0  -5  -6  199.76    2.85 
   0  -5  -6  181.43    3.34 
   0  -5  -6  196.84    3.33 
   0  -5  -6  187.73    2.73 
   0  -5  -6  201.60    3.39 
   0  -5  -5   59.93    1.65 
   0  -5  -5   56.03    1.64 
   0  -5  -5   56.83    1.30 
   0  -5  -4   11.24    0.97 
   0  -5  -4   14.32    0.83 
   0  -5  -4   15.39    0.66 
   0  -5  -4   14.70    0.74 
   0  -5  -4   14.83    0.73 
   0  -5  -4   20.39    1.90 
   0  -5  -4   18.89    1.81 
   0  -5  -4   15.31    0.84 
   0  -5  -3   10.12    0.50 
   0  -5  -3   10.45    0.51 
   0  -5  -3   10.08    0.66 
   0  -5  -3    9.93    0.62 
   0  -5  -3   10.09    0.62 
   0  -5  -3    5.07    1.20 
   0  -5  -3    6.46    1.16 
   0  -5  -3    8.14    0.78 
   0  -5  -2   56.46    1.27 
   0  -5  -2   55.79    1.26 
   0  -5  -2    6.16    1.14 
   0  -5  -2    6.64    1.19 
   0  -5  -2    0.02    0.55 
   0  -5  -2   57.69    1.43 
   0  -5  -2   59.81    1.03 
   0  -5  -2   61.02    1.05 
   0  -5  -1   34.20    0.78 
   0  -5  -1   37.99    0.88 
   0  -5  -1   38.86    0.90 
   0  -5  -1   36.24    1.08 
   0  -5  -1   36.90    1.09 
   0  -5  -1   36.43    1.06 
   0  -5  -1   36.26    1.05 
   0  -5   0  174.23    2.45 
   0  -5   0  170.16    2.10 
   0  -5   0  171.18    2.11 
   0  -5   0  174.46    2.55 
   0  -5   0  180.70    2.55 
   0  -5   0  176.96    2.57 
   0  -5   1   63.18    1.37 
   0  -5   1   69.79    1.67 
   0  -5   1   59.20    1.43 
   0  -5   1   67.35    2.34 
   0  -5   1   62.73    2.26 
   0  -5   1   60.12    1.44 
   0  -5   1   63.08    1.39 
   0  -5   1   63.64    1.12 
   0  -5   1   61.85    1.09 
   0  -5   1   63.48    1.13 
   0  -5   1   62.04    1.08 
   0  -5   1   65.40    1.35 
   0  -5   1   56.66    1.34 
   0  -5   2   26.62    1.16 
   0  -5   2   18.84    0.59 
   0  -5   2   20.33    0.81 
   0  -5   2   19.71    0.61 
   0  -5   2   19.59    0.90 
   0  -5   2   26.56    1.15 
   0  -5   2   20.77    0.90 
   0  -5   2   21.18    0.90 
   0  -5   2   13.61    1.17 
   0  -5   2   17.88    0.77 
   0  -5   2   19.80    0.80 
   0  -5   3   35.56    1.08 
   0  -5   3   35.42    0.85 
   0  -5   3   33.68    1.07 
   0  -5   3   33.03    0.87 
   0  -5   3   35.06    1.09 
   0  -5   3   34.19    1.06 
   0  -5   3   20.24    1.30 
   0  -5   3   19.39    1.30 
   0  -5   3   35.89    1.14 
   0  -5   3   36.27    1.12 
   0  -5   3   36.26    1.11 
   0  -5   3   32.98    0.77 
   0  -5   3   33.75    0.87 
   0  -5   3   34.91    0.99 
   0  -5   3   30.97    1.05 
   0  -5   3   28.31    0.94 
   0  -5   4    2.36    0.39 
   0  -5   4    2.08    0.36 
   0  -5   4    2.48    0.31 
   0  -5   4    2.28    0.38 
   0  -5   4    2.30    0.34 
   0  -5   4    2.22    0.33 
   0  -5   4    2.50    0.30 
   0  -5   4    2.62    0.46 
   0  -5   4    0.39    0.52 
   0  -5   4    2.43    0.47 
   0  -5   4    0.59    0.53 
   0  -5   4    2.08    0.45 
   0  -5   4    2.80    0.39 
   0  -5   4    2.47    0.41 
   0  -5   4    2.11    0.43 
   0  -5   5   99.19    1.99 
   0  -5   5   91.27    1.82 
   0  -5   5   93.76    2.03 
   0  -5   5   96.45    2.05 
   0  -5   5   97.88    2.03 
   0  -5   5   92.75    1.57 
   0  -5   5   94.18    1.53 
   0  -5   5   93.21    1.54 
   0  -5   5   94.75    1.58 
   0  -5   5   98.77    1.98 
   0  -5   5   97.50    2.07 
   0  -5   5   96.16    1.96 
   0  -5   5   93.91    1.91 
   0  -5   5   93.29    1.85 
   0  -5   5   97.45    1.61 
   0  -5   5   92.75    1.98 
   0  -5   6    1.07    0.40 
   0  -5   6    1.25    0.35 
   0  -5   6    0.95    0.43 
   0  -5   6    0.66    0.37 
   0  -5   6    0.88    0.31 
   0  -5   6    0.88    0.38 
   0  -5   6    0.78    0.31 
   0  -5   6    0.90    0.28 
   0  -5   6    0.70    0.29 
   0  -5   6    0.85    0.28 
   0  -5   6    0.73    0.36 
   0  -5   6    0.60    0.44 
   0  -5   6    0.66    0.43 
   0  -5   6    0.70    0.38 
   0  -5   6    1.09    0.44 
   0  -5   6    0.76    0.37 
   0  -5   6    0.80    0.34 
   0  -5   6    0.74    0.39 
   0  -5   7   10.57    0.55 
   0  -5   7    9.18    0.72 
   0  -5   7    9.80    0.68 
   0  -5   7   10.12    0.51 
   0  -5   7   10.73    0.55 
   0  -5   7    9.96    0.50 
   0  -5   7    9.81    0.71 
   0  -5   7   10.34    0.66 
   0  -5   7    9.96    0.71 
   0  -5   7   10.75    0.66 
   0  -5   7   10.00    0.72 
   0  -5   7   10.69    0.74 
   0  -5   7   11.58    0.57 
   0  -5   8    6.59    0.49 
   0  -5   8    7.08    0.43 
   0  -5   8    7.09    0.46 
   0  -5   8    7.62    0.44 
   0  -5   8    6.31    0.54 
   0  -5   8    7.14    0.60 
   0  -5   8    6.60    0.57 
   0  -5   8    6.52    0.62 
   0  -5   8    7.69    0.64 
   0  -5   8    6.68    0.46 
   0  -5   9    4.58    0.38 
   0  -5   9    5.04    0.40 
   0  -5   9    5.10    0.36 
   0  -5   9    4.15    0.48 
   0  -5   9    4.39    0.51 
   0  -5   9    4.37    0.36 
   0  -5  10   75.20    1.07 
   0  -5  10   75.17    1.09 
   0  -4 -10    0.28    0.36 
   0  -4 -10    0.17    0.35 
   0  -4 -10    0.16    0.37 
   0  -4  -9   34.52    1.19 
   0  -4  -9   39.12    1.10 
   0  -4  -9   38.00    1.00 
   0  -4  -9   37.68    1.09 
   0  -4  -9   35.41    1.32 
   0  -4  -9   41.46    1.05 
   0  -4  -9   38.61    1.29 
   0  -4  -8   52.35    1.52 
   0  -4  -8   63.87    1.36 
   0  -4  -8   60.13    1.66 
   0  -4  -8   57.09    1.65 
   0  -4  -8   66.52    1.36 
   0  -4  -8   55.01    1.67 
   0  -4  -7   10.03    0.63 
   0  -4  -7   10.05    0.55 
   0  -4  -7   10.34    0.65 
   0  -4  -7    9.60    0.76 
   0  -4  -7    9.54    0.74 
   0  -4  -7    7.38    0.68 
   0  -4  -7    9.96    1.15 
   0  -4  -7   10.87    0.81 
   0  -4  -7    8.25    1.15 
   0  -4  -7    9.41    0.74 
   0  -4  -7   10.08    0.76 
   0  -4  -6  254.61    4.62 
   0  -4  -6  227.75    3.50 
   0  -4  -6  226.09    3.48 
   0  -4  -6  232.67    3.68 
   0  -4  -6  243.74    3.57 
   0  -4  -6  260.32    3.22 
   0  -4  -6  232.63    3.02 
   0  -4  -6  230.66    3.60 
   0  -4  -5   13.31    0.73 
   0  -4  -5   18.13    1.10 
   0  -4  -5   12.81    0.75 
   0  -4  -5   13.56    0.72 
   0  -4  -5   16.58    1.17 
   0  -4  -5   13.16    0.72 
   0  -4  -5   12.50    0.70 
   0  -4  -5   13.97    0.57 
   0  -4  -4    0.68    0.31 
   0  -4  -4    1.62    0.60 
   0  -4  -4    0.77    0.31 
   0  -4  -4    1.08    0.60 
   0  -4  -4    0.58    0.24 
   0  -4  -3    0.56    0.27 
   0  -4  -3    0.27    0.52 
   0  -4  -2    2.85    0.29 
   0  -4  -2    2.78    0.28 
   0  -4  -2    2.22    0.51 
   0  -4  -2    2.88    0.32 
   0  -4  -2    3.06    0.32 
   0  -4  -1  229.49    2.81 
   0  -4  -1  227.45    2.81 
   0  -4  -1  230.20    2.71 
   0  -4   0   63.70    0.94 
   0  -4   0   64.71    0.95 
   0  -4   0   64.31    1.18 
   0  -4   0   68.87    1.18 
   0  -4   0   64.95    1.19 
   0  -4   0   69.20    1.17 
   0  -4   1   82.03    1.40 
   0  -4   1   77.34    1.13 
   0  -4   1   68.22    1.87 
   0  -4   1   82.07    1.33 
   0  -4   1   60.26    2.15 
   0  -4   1   56.67    2.07 
   0  -4   1   94.74    1.80 
   0  -4   1   79.91    1.36 
   0  -4   1   77.55    1.38 
   0  -4   2   23.25    0.59 
   0  -4   2   25.58    0.78 
   0  -4   2   23.64    0.59 
   0  -4   2   23.75    0.75 
   0  -4   2   23.81    0.77 
   0  -4   2   30.94    1.12 
   0  -4   2   27.54    0.87 
   0  -4   2   26.85    0.86 
   0  -4   2   33.72    1.16 
   0  -4   2   25.95    0.91 
   0  -4   2   23.68    0.76 
   0  -4   2   22.88    0.74 
   0  -4   3   13.53    0.61 
   0  -4   3   14.71    0.62 
   0  -4   3   14.93    0.62 
   0  -4   3   16.86    0.73 
   0  -4   3   12.93    0.84 
   0  -4   3   12.75    0.83 
   0  -4   3   16.20    0.71 
   0  -4   3   17.35    0.73 
   0  -4   3   14.57    0.48 
   0  -4   3   14.95    0.50 
   0  -4   3   15.49    0.61 
   0  -4   3   15.69    0.64 
   0  -4   4    2.04    0.42 
   0  -4   4    1.72    0.32 
   0  -4   4    1.96    0.31 
   0  -4   4    1.52    0.31 
   0  -4   4    1.62    0.27 
   0  -4   4    1.67    0.24 
   0  -4   4    0.90    0.43 
   0  -4   4    1.50    0.39 
   0  -4   4    0.88    0.43 
   0  -4   4    2.12    0.39 
   0  -4   4    1.88    0.40 
   0  -4   4    2.17    0.35 
   0  -4   4    1.77    0.31 
   0  -4   5   58.38    1.43 
   0  -4   5   60.12    1.43 
   0  -4   5   56.93    1.44 
   0  -4   5   61.93    1.43 
   0  -4   5   52.13    1.44 
   0  -4   5   56.06    1.08 
   0  -4   5   57.96    1.04 
   0  -4   5   57.03    1.04 
   0  -4   5   58.35    1.13 
   0  -4   5   59.28    1.08 
   0  -4   5   62.82    1.46 
   0  -4   5   52.97    1.45 
   0  -4   5   61.57    1.45 
   0  -4   5   59.84    1.40 
   0  -4   5   60.41    1.42 
   0  -4   5   58.10    1.11 
   0  -4   5   47.23    1.30 
   0  -4   5   59.50    1.23 
   0  -4   6    1.82    0.38 
   0  -4   6    1.67    0.32 
   0  -4   6    1.62    0.30 
   0  -4   6    1.32    0.33 
   0  -4   6    1.67    0.37 
   0  -4   6    1.78    0.29 
   0  -4   6    1.79    0.29 
   0  -4   6    2.31    0.43 
   0  -4   6    1.95    0.42 
   0  -4   6    1.52    0.43 
   0  -4   6    1.85    0.41 
   0  -4   6    1.68    0.41 
   0  -4   6    1.54    0.37 
   0  -4   6    1.62    0.38 
   0  -4   6    1.46    0.42 
   0  -4   6    1.77    0.40 
   0  -4   7    3.89    0.39 
   0  -4   7    3.84    0.37 
   0  -4   7    2.70    0.42 
   0  -4   7    4.43    0.53 
   0  -4   7    3.87    0.46 
   0  -4   7    3.82    0.38 
   0  -4   7    3.81    0.37 
   0  -4   7    3.54    0.51 
   0  -4   7    3.89    0.50 
   0  -4   7    4.00    0.50 
   0  -4   7    4.02    0.49 
   0  -4   7    3.83    0.51 
   0  -4   7    3.87    0.52 
   0  -4   7    2.23    0.49 
   0  -4   7    3.90    0.50 
   0  -4   8    1.55    0.42 
   0  -4   8    1.80    0.41 
   0  -4   8    2.00    0.41 
   0  -4   8    1.53    0.41 
   0  -4   8    1.62    0.32 
   0  -4   8    1.62    0.33 
   0  -4   8    1.51    0.31 
   0  -4   8    1.30    0.35 
   0  -4   8    1.31    0.39 
   0  -4   8    1.56    0.31 
   0  -4   8    1.73    0.45 
   0  -4   8    1.93    0.44 
   0  -4   8    1.06    0.35 
   0  -4   9    5.60    0.43 
   0  -4   9    5.72    0.40 
   0  -4   9    4.99    0.45 
   0  -4   9    6.20    0.41 
   0  -4   9    5.52    0.44 
   0  -4   9    5.99    0.59 
   0  -4   9    5.44    0.57 
   0  -4   9    5.38    0.57 
   0  -4  10    4.91    0.37 
   0  -4  10    4.61    0.36 
   0  -4  10    4.05    0.47 
   0  -4  10    4.31    0.36 
   0  -4  11   15.99    0.42 
   0  -4  11   16.01    0.40 
   0  -3 -11    1.66    0.38 
   0  -3 -11    1.57    0.34 
   0  -3 -11    1.72    0.38 
   0  -3 -11    1.46    0.36 
   0  -3 -10    5.47    0.53 
   0  -3 -10    5.36    0.64 
   0  -3 -10    5.11    0.43 
   0  -3 -10    5.23    0.54 
   0  -3 -10    5.47    0.53 
   0  -3  -9   39.59    1.29 
   0  -3  -9   39.31    1.03 
   0  -3  -9   42.61    1.06 
   0  -3  -9   42.28    1.17 
   0  -3  -9   44.14    1.17 
   0  -3  -9   39.64    1.01 
   0  -3  -9   42.33    1.15 
   0  -3  -9   36.87    1.32 
   0  -3  -9   38.61    1.39 
   0  -3  -8   14.46    1.38 
   0  -3  -8   11.99    0.85 
   0  -3  -8   11.56    0.84 
   0  -3  -8   12.71    0.67 
   0  -3  -8   13.26    0.66 
   0  -3  -8   12.85    0.68 
   0  -3  -8   13.36    0.65 
   0  -3  -8   11.83    0.81 
   0  -3  -8   15.61    1.12 
   0  -3  -8   12.13    0.84 
   0  -3  -8    9.59    0.82 
   0  -3  -8   11.69    0.81 
   0  -3  -7    6.21    0.60 
   0  -3  -7    3.30    0.59 
   0  -3  -7    5.89    0.67 
   0  -3  -7    5.94    0.68 
   0  -3  -7    6.38    0.49 
   0  -3  -7    5.82    0.62 
   0  -3  -7    6.50    0.86 
   0  -3  -7    5.48    0.62 
   0  -3  -7    5.88    0.63 
   0  -3  -7    6.15    0.50 
   0  -3  -6    0.52    0.39 
   0  -3  -6    0.03    0.37 
   0  -3  -6    0.20    0.28 
   0  -3  -6    0.50    0.58 
   0  -3  -6    0.75    0.44 
   0  -3  -6    0.21    0.33 
   0  -3  -6    0.06    0.32 
   0  -3  -6    0.24    0.35 
   0  -3  -5    1.03    0.36 
   0  -3  -5    1.51    0.64 
   0  -3  -5    0.91    0.37 
   0  -3  -5    1.13    0.32 
   0  -3  -5    1.28    0.34 
   0  -3  -5    1.21    0.35 
   0  -3  -4  214.11    2.91 
   0  -3  -4  239.25    3.58 
   0  -3  -4  215.71    2.93 
   0  -3  -4  240.50    2.92 
   0  -3  -4  220.68    2.87 
   0  -3  -3   65.88    1.24 
   0  -3  -3   65.81    1.24 
   0  -3  -3   67.64    1.20 
   0  -3  -2    1.45    0.48 
   0  -3  -2    1.15    0.22 
   0  -3  -1  364.20    3.64 
   0  -3  -1  362.04    3.64 
   0  -3   0  241.08    1.64 
   0  -3   0  244.09    1.69 
   0  -3   0  242.54    1.69 
   0  -3   1   60.38    0.96 
   0  -3   1   60.70    1.23 
   0  -3   1   11.03    0.97 
   0  -3   1   11.19    1.00 
   0  -3   1   58.39    0.95 
   0  -3   1   60.33    0.97 
   0  -3   1   61.36    0.91 
   0  -3   2  411.28    4.84 
   0  -3   2  471.61    4.94 
   0  -3   2  614.09    5.51 
   0  -3   2  458.17    4.88 
   0  -3   2  607.79    5.49 
   0  -3   2  479.77    4.95 
   0  -3   2  422.83    4.66 
   0  -3   2  435.41    4.83 
   0  -3   3   93.26    1.30 
   0  -3   3   97.93    1.52 
   0  -3   3  104.35    1.64 
   0  -3   3  106.86    1.74 
   0  -3   3   95.38    1.51 
   0  -3   3  104.03    1.64 
   0  -3   3  104.75    1.73 
   0  -3   3   92.73    1.51 
   0  -3   3  102.67    1.70 
   0  -3   3   95.35    1.52 
   0  -3   4   77.67    1.53 
   0  -3   4   77.81    1.45 
   0  -3   4   72.24    1.15 
   0  -3   4   77.54    1.20 
   0  -3   4   75.38    1.42 
   0  -3   4   82.14    1.47 
   0  -3   4   85.49    1.56 
   0  -3   4   79.84    1.48 
   0  -3   4   81.40    1.50 
   0  -3   4   80.50    1.34 
   0  -3   4   88.46    1.56 
   0  -3   4   83.21    1.40 
   0  -3   4   81.29    1.47 
   0  -3   4   78.42    1.50 
   0  -3   5    3.38    0.37 
   0  -3   5    4.16    0.41 
   0  -3   5    3.37    0.41 
   0  -3   5    3.14    0.29 
   0  -3   5    3.25    0.40 
   0  -3   5    3.42    0.37 
   0  -3   5    2.98    0.28 
   0  -3   5    3.08    0.39 
   0  -3   5    3.41    0.30 
   0  -3   5    3.12    0.29 
   0  -3   5    3.20    0.41 
   0  -3   5    3.47    0.40 
   0  -3   5    3.86    0.42 
   0  -3   5    3.12    0.37 
   0  -3   5    3.42    0.38 
   0  -3   5    3.60    0.35 
   0  -3   5    2.93    0.34 
   0  -3   5    2.23    0.34 
   0  -3   6   17.31    0.59 
   0  -3   6   19.63    0.69 
   0  -3   6   16.11    0.68 
   0  -3   6   12.29    0.71 
   0  -3   6   17.65    0.76 
   0  -3   6   16.96    0.71 
   0  -3   6   16.25    0.59 
   0  -3   6   15.83    0.59 
   0  -3   6   16.87    0.58 
   0  -3   6   19.18    0.80 
   0  -3   6   19.47    0.81 
   0  -3   6   17.83    0.76 
   0  -3   6   17.52    0.73 
   0  -3   6   12.95    0.77 
   0  -3   6   18.59    0.80 
   0  -3   6   16.86    0.71 
   0  -3   6   18.50    0.81 
   0  -3   7   31.09    0.82 
   0  -3   7   34.94    0.89 
   0  -3   7   27.72    1.03 
   0  -3   7   34.12    1.10 
   0  -3   7   32.51    1.01 
   0  -3   7   33.24    0.88 
   0  -3   7   33.61    1.08 
   0  -3   7   35.79    1.16 
   0  -3   7   37.21    1.18 
   0  -3   7   32.44    0.85 
   0  -3   7   32.06    1.07 
   0  -3   7   30.15    1.20 
   0  -3   7   34.25    1.15 
   0  -3   8  103.25    1.66 
   0  -3   8  106.88    2.23 
   0  -3   8  115.17    2.22 
   0  -3   8  115.26    2.22 
   0  -3   8  109.82    1.79 
   0  -3   8  106.98    2.11 
   0  -3   8  109.28    2.25 
   0  -3   8  126.19    2.35 
   0  -3   8  100.57    1.72 
   0  -3   8  109.78    1.70 
   0  -3   9   17.77    0.63 
   0  -3   9   16.62    0.65 
   0  -3   9   16.12    0.54 
   0  -3   9   14.82    0.65 
   0  -3   9   15.94    0.66 
   0  -3   9   14.95    0.56 
   0  -3   9   16.71    0.84 
   0  -3   9   16.74    0.84 
   0  -3   9   15.94    0.83 
   0  -3   9   15.72    0.87 
   0  -3   9   16.59    0.89 
   0  -3   9   15.81    0.88 
   0  -3  10   11.36    0.50 
   0  -3  10    9.55    0.69 
   0  -3  10    9.58    0.50 
   0  -3  10    9.50    0.52 
   0  -3  10    9.47    0.69 
   0  -3  11   37.89    0.82 
   0  -3  11   36.59    0.86 
   0  -2 -12    7.20    0.30 
   0  -2 -11    2.71    0.37 
   0  -2 -11    2.85    0.40 
   0  -2 -11    3.08    0.42 
   0  -2 -10   12.30    0.85 
   0  -2 -10   11.15    0.83 
   0  -2 -10   13.10    0.68 
   0  -2 -10   12.62    0.87 
   0  -2 -10   13.54    0.90 
   0  -2 -10   14.33    0.70 
   0  -2 -10    7.01    1.34 
   0  -2 -10    7.04    1.35 
   0  -2  -9    4.22    0.64 
   0  -2  -9    3.67    0.63 
   0  -2  -9    5.44    0.59 
   0  -2  -9    4.69    0.56 
   0  -2  -9    5.29    0.58 
   0  -2  -9    4.90    0.68 
   0  -2  -9    4.61    0.72 
   0  -2  -9    5.39    0.73 
   0  -2  -9    4.39    0.57 
   0  -2  -9    3.61    0.46 
   0  -2  -9    3.79    0.66 
   0  -2  -9    6.03    1.21 
   0  -2  -9    4.51    0.68 
   0  -2  -9    5.08    0.71 
   0  -2  -8   10.81    0.86 
   0  -2  -8   10.16    1.15 
   0  -2  -8    9.08    0.80 
   0  -2  -8    9.59    0.69 
   0  -2  -8    9.60    0.58 
   0  -2  -8   10.45    0.62 
   0  -2  -8    9.69    0.55 
   0  -2  -8    9.46    0.73 
   0  -2  -8    9.69    0.72 
   0  -2  -8    9.57    0.84 
   0  -2  -8   10.47    0.90 
   0  -2  -8    9.60    0.91 
   0  -2  -8   10.11    0.77 
   0  -2  -7   37.38    1.19 
   0  -2  -7   36.87    0.89 
   0  -2  -7   37.37    0.93 
   0  -2  -7   37.11    0.89 
   0  -2  -7   36.98    1.14 
   0  -2  -7   35.86    1.29 
   0  -2  -7   36.89    1.17 
   0  -2  -7   34.96    1.29 
   0  -2  -7   35.08    1.29 
   0  -2  -7   39.04    1.44 
   0  -2  -7   35.85    1.15 
   0  -2  -7   36.04    1.40 
   0  -2  -6  255.25    3.72 
   0  -2  -6  252.62    3.75 
   0  -2  -6  245.02    2.88 
   0  -2  -6  244.20    3.26 
   0  -2  -6  254.84    3.54 
   0  -2  -6  247.28    3.32 
   0  -2  -6  240.35    3.14 
   0  -2  -6  241.72    2.81 
   0  -2  -6  229.20    3.59 
   0  -2  -6  244.76    3.61 
   0  -2  -5   21.50    0.72 
   0  -2  -5   16.89    0.82 
   0  -2  -5   17.14    0.82 
   0  -2  -5   21.84    0.75 
   0  -2  -5   21.12    0.57 
   0  -2  -4    7.18    0.52 
   0  -2  -4    7.19    0.52 
   0  -2  -4    8.67    0.57 
   0  -2  -4    8.86    0.44 
   0  -2  -4    8.65    0.47 
   0  -2  -4    8.95    0.62 
   0  -2  -3   95.03    1.38 
   0  -2  -3   97.72    1.48 
   0  -2  -3   97.93    1.49 
   0  -2  -3   99.45    1.71 
   0  -2  -2  120.46    1.49 
   0  -2  -2  116.40    1.68 
   0  -2  -2  117.08    1.40 
   0  -2  -1  386.56    3.73 
   0  -2  -1  394.40    4.04 
   0  -2   0  319.96    3.55 
   0  -2   0  387.32    3.51 
   0  -2   1    2.91    0.21 
   0  -2   1    3.03    0.21 
   0  -2   1    2.98    0.36 
   0  -2   1    3.16    0.20 
   0  -2   2   82.69    1.29 
   0  -2   2   69.99    1.14 
   0  -2   2   94.99    1.37 
   0  -2   2   76.46    1.17 
   0  -2   2   96.27    1.37 
   0  -2   2   76.90    1.11 
   0  -2   2   77.78    1.18 
   0  -2   2   66.40    1.07 
   0  -2   3  173.08    2.10 
   0  -2   3  160.25    2.06 
   0  -2   3  162.71    2.11 
   0  -2   3  155.31    2.05 
   0  -2   3  167.68    2.11 
   0  -2   3  177.68    2.15 
   0  -2   3  170.43    2.13 
   0  -2   3  163.14    1.95 
   0  -2   3  176.86    2.15 
   0  -2   3  150.23    2.01 
   0  -2   3  160.03    2.09 
   0  -2   3  161.05    2.14 
   0  -2   4    3.46    0.33 
   0  -2   4    3.28    0.35 
   0  -2   4    3.19    0.33 
   0  -2   4    3.17    0.36 
   0  -2   4    3.64    0.39 
   0  -2   4    3.60    0.36 
   0  -2   4    3.70    0.40 
   0  -2   4    3.49    0.35 
   0  -2   4    3.39    0.35 
   0  -2   4    2.66    0.31 
   0  -2   4    3.42    0.31 
   0  -2   4    3.75    0.34 
   0  -2   5    2.30    0.29 
   0  -2   5    1.88    0.29 
   0  -2   5    2.06    0.31 
   0  -2   5    2.08    0.31 
   0  -2   5    1.99    0.26 
   0  -2   5    1.86    0.25 
   0  -2   5    2.14    0.36 
   0  -2   5    1.90    0.32 
   0  -2   5    1.97    0.34 
   0  -2   5    2.20    0.36 
   0  -2   5    1.65    0.33 
   0  -2   5    2.02    0.34 
   0  -2   5    1.96    0.34 
   0  -2   5    1.71    0.33 
   0  -2   5    1.95    0.31 
   0  -2   6    4.49    0.38 
   0  -2   6    3.83    0.34 
   0  -2   6    3.16    0.35 
   0  -2   6    3.80    0.40 
   0  -2   6    3.83    0.32 
   0  -2   6    3.64    0.29 
   0  -2   6    4.53    0.44 
   0  -2   6    3.71    0.42 
   0  -2   6    4.17    0.39 
   0  -2   6    3.61    0.42 
   0  -2   6    4.41    0.42 
   0  -2   6    3.96    0.41 
   0  -2   6    4.31    0.43 
   0  -2   7   37.43    0.85 
   0  -2   7   30.94    0.97 
   0  -2   7   39.97    1.06 
   0  -2   7   38.03    0.96 
   0  -2   7   38.29    0.92 
   0  -2   7   37.85    0.92 
   0  -2   7   37.49    1.12 
   0  -2   7   31.43    1.19 
   0  -2   7   39.31    1.17 
   0  -2   7   34.79    0.87 
   0  -2   7   36.68    0.86 
   0  -2   7   41.55    1.21 
   0  -2   7   40.84    1.20 
   0  -2   8    0.48    0.29 
   0  -2   8    0.34    0.35 
   0  -2   8    0.31    0.35 
   0  -2   8    0.44    0.26 
   0  -2   8    0.31    0.27 
   0  -2   8    0.23    0.29 
   0  -2   8    0.18    0.22 
   0  -2   8    0.44    0.32 
   0  -2   8    0.34    0.38 
   0  -2   8    0.45    0.37 
   0  -2   8    0.43    0.30 
   0  -2   8    0.21    0.27 
   0  -2   9    0.48    0.33 
   0  -2   9    0.34    0.27 
   0  -2   9    1.02    0.39 
   0  -2   9    0.33    0.26 
   0  -2   9    0.46    0.30 
   0  -2   9    0.61    0.32 
   0  -2   9    0.34    0.35 
   0  -2   9    0.34    0.37 
   0  -2   9    0.49    0.38 
   0  -2   9    0.84    0.41 
   0  -2  10    5.81    0.41 
   0  -2  10    5.22    0.43 
   0  -2  10    6.04    0.44 
   0  -2  10    6.81    0.43 
   0  -2  10    4.85    0.58 
   0  -2  10    5.76    0.59 
   0  -2  10    5.78    0.58 
   0  -2  11    1.33    0.26 
   0  -2  11    0.66    0.34 
   0  -1 -12    0.46    0.24 
   0  -1 -11   43.61    1.04 
   0  -1 -11   49.17    1.05 
   0  -1 -10    3.02    0.62 
   0  -1 -10    6.33    0.57 
   0  -1 -10    3.83    1.45 
   0  -1 -10    7.51    0.58 
   0  -1 -10    3.42    1.47 
   0  -1 -10    6.91    0.75 
   0  -1 -10    7.48    0.80 
   0  -1 -10    6.87    0.76 
   0  -1 -10    5.14    0.64 
   0  -1 -10    6.39    0.76 
   0  -1  -9    3.17    0.57 
   0  -1  -9    3.07    0.51 
   0  -1  -9    3.51    0.77 
   0  -1  -9    3.78    0.72 
   0  -1  -9    1.48    0.62 
   0  -1  -9    3.22    0.54 
   0  -1  -9    3.35    0.71 
   0  -1  -9    2.80    0.51 
   0  -1  -9    3.02    0.48 
   0  -1  -9    2.87    0.62 
   0  -1  -9    3.48    0.87 
   0  -1  -9    2.61    0.63 
   0  -1  -8   84.18    1.48 
   0  -1  -8   98.65    1.67 
   0  -1  -8   78.23    2.03 
   0  -1  -8   98.90    2.44 
   0  -1  -8   99.15    2.45 
   0  -1  -8   85.50    1.84 
   0  -1  -8   89.73    1.85 
   0  -1  -8   88.35    2.08 
   0  -1  -8   95.61    2.33 
   0  -1  -8   93.04    1.69 
   0  -1  -8   96.91    2.06 
   0  -1  -8  103.92    2.51 
   0  -1  -8   91.49    2.28 
   0  -1  -8   90.99    2.27 
   0  -1  -7    1.97    0.65 
   0  -1  -7    2.81    0.49 
   0  -1  -7    2.67    0.64 
   0  -1  -7    2.03    0.44 
   0  -1  -7    2.37    0.45 
   0  -1  -7    2.15    0.51 
   0  -1  -7    2.27    0.65 
   0  -1  -7    2.08    0.50 
   0  -1  -7    2.27    0.37 
   0  -1  -7    2.18    0.57 
   0  -1  -7    1.88    0.65 
   0  -1  -6  219.08    2.62 
   0  -1  -6  229.90    3.55 
   0  -1  -6  239.20    3.56 
   0  -1  -6  226.74    3.02 
   0  -1  -6  233.90    3.44 
   0  -1  -6  223.03    3.39 
   0  -1  -6  219.35    3.40 
   0  -1  -6  254.77    3.61 
   0  -1  -6  212.52    2.54 
   0  -1  -6  229.95    3.06 
   0  -1  -5  129.76    2.22 
   0  -1  -5  131.10    2.20 
   0  -1  -5  129.20    2.21 
   0  -1  -5  127.71    2.13 
   0  -1  -5  129.17    1.88 
   0  -1  -5  135.95    2.35 
   0  -1  -5  129.98    2.30 
   0  -1  -5  126.45    1.86 
   0  -1  -5  130.92    1.94 
   0  -1  -5  125.79    1.76 
   0  -1  -4   66.24    1.27 
   0  -1  -4   67.51    1.28 
   0  -1  -4   60.20    1.24 
   0  -1  -4   65.01    1.13 
   0  -1  -4   59.91    1.33 
   0  -1  -3  167.82    2.07 
   0  -1  -3  166.70    2.08 
   0  -1  -3  173.73    1.98 
   0  -1  -2   -0.04    0.21 
   0  -1  -2   -0.01    0.21 
   0  -1  -2   -0.22    0.30 
   0  -1  -2   -0.37    0.33 
   0  -1  -1  360.51    3.49 
   0  -1  -1  367.21    3.49 
   0  -1  -1  365.14    3.43 
   0  -1   0  200.05    2.13 
   0  -1   0  229.85    2.09 
   0  -1   1  555.86    5.21 
   0  -1   1  578.87    5.20 
   0  -1   2    0.24    0.16 
   0  -1   2    0.22    0.16 
   0  -1   2    0.35    0.20 
   0  -1   2    0.32    0.19 
   0  -1   2    0.21    0.19 
   0  -1   2    0.41    0.19 
   0  -1   3   71.33    1.05 
   0  -1   3   63.81    1.00 
   0  -1   3   70.17    1.06 
   0  -1   3   68.00    1.05 
   0  -1   3   67.80    1.08 
   0  -1   3   62.72    1.02 
   0  -1   3   65.50    1.00 
   0  -1   3   63.20    0.98 
   0  -1   3   65.52    1.00 
   0  -1   3   71.94    1.01 
   0  -1   4    7.68    0.39 
   0  -1   4    7.32    0.36 
   0  -1   4    7.88    0.42 
   0  -1   4    7.47    0.40 
   0  -1   4    7.69    0.39 
   0  -1   4    7.98    0.44 
   0  -1   4    8.05    0.43 
   0  -1   4    7.50    0.36 
   0  -1   4    8.08    0.37 
   0  -1   4    7.88    0.40 
   0  -1   5   51.37    1.02 
   0  -1   5   52.79    1.02 
   0  -1   5   54.06    1.08 
   0  -1   5   52.94    1.06 
   0  -1   5   47.23    0.93 
   0  -1   5   49.30    0.89 
   0  -1   5   51.02    1.06 
   0  -1   5   51.01    1.11 
   0  -1   5   51.25    1.04 
   0  -1   5   51.74    0.88 
   0  -1   5   51.91    1.10 
   0  -1   5   51.33    1.08 
   0  -1   6   61.34    1.09 
   0  -1   6   62.48    1.22 
   0  -1   6   63.38    1.29 
   0  -1   6   61.26    1.19 
   0  -1   6   67.22    1.44 
   0  -1   6   62.77    1.30 
   0  -1   6   57.18    0.97 
   0  -1   6   61.68    1.05 
   0  -1   6   62.53    1.33 
   0  -1   6   62.82    1.34 
   0  -1   7    2.51    0.35 
   0  -1   7    2.52    0.41 
   0  -1   7    2.82    0.47 
   0  -1   7    2.38    0.29 
   0  -1   7    2.17    0.34 
   0  -1   7    2.74    0.42 
   0  -1   7    2.02    0.27 
   0  -1   7    2.61    0.30 
   0  -1   7    2.53    0.30 
   0  -1   7    2.03    0.38 
   0  -1   7    2.61    0.41 
   0  -1   7    2.17    0.40 
   0  -1   8   21.76    0.70 
   0  -1   8   22.44    0.72 
   0  -1   8   21.46    0.71 
   0  -1   8   21.45    0.97 
   0  -1   8   21.32    0.86 
   0  -1   8   21.84    0.71 
   0  -1   8   23.75    0.98 
   0  -1   8   22.38    0.96 
   0  -1   8   22.32    0.99 
   0  -1   8   20.99    0.93 
   0  -1   8   23.72    0.98 
   0  -1   8   22.24    0.97 
   0  -1   8   20.89    0.67 
   0  -1   9   16.85    0.67 
   0  -1   9   17.22    0.60 
   0  -1   9   17.71    0.91 
   0  -1   9   19.07    0.92 
   0  -1   9   16.47    0.88 
   0  -1   9   18.14    0.66 
   0  -1   9   15.63    0.62 
   0  -1   9   16.28    0.86 
   0  -1   9   16.96    0.91 
   0  -1  10   32.87    0.76 
   0  -1  10   28.84    0.79 
   0  -1  10   30.23    0.84 
   0  -1  10   32.60    0.83 
   0  -1  10   29.55    1.14 
   0  -1  10   30.94    1.18 
   0  -1  10   29.47    1.16 
   0  -1  11   30.77    0.85 
   0  -1  11   32.08    1.09 
   0  -1  11   31.67    1.08 
   0  -1  11   33.95    0.81 
   0  -1  12    5.54    0.29 
   0   0 -12    0.18    0.26 
   0   0 -12    0.44    0.26 
   0   0 -12    0.27    0.25 
   0   0 -11    2.92    0.45 
   0   0 -11    2.45    0.43 
   0   0 -11    3.53    0.52 
   0   0 -11    3.80    0.54 
   0   0 -11    2.81    0.43 
   0   0 -11    3.14    0.43 
   0   0 -11    2.82    0.39 
   0   0 -11    2.92    0.57 
   0   0 -11    1.91    0.53 
   0   0 -10   35.19    1.04 
   0   0 -10   25.78    1.59 
   0   0 -10   33.89    0.99 
   0   0 -10   25.88    1.60 
   0   0 -10   35.40    1.03 
   0   0 -10   35.49    1.02 
   0   0 -10   35.56    1.05 
   0   0 -10   34.40    1.44 
   0   0 -10   34.08    1.44 
   0   0 -10   34.95    1.45 
   0   0 -10   28.85    1.17 
   0   0 -10   32.11    1.30 
   0   0 -10   28.42    1.05 
   0   0 -10   25.64    1.12 
   0   0  -9   69.68    1.50 
   0   0  -9   71.63    1.47 
   0   0  -9   43.81    1.67 
   0   0  -9   43.71    1.71 
   0   0  -9   69.73    1.44 
   0   0  -9   73.46    2.11 
   0   0  -9   58.58    1.86 
   0   0  -9   72.78    2.11 
   0   0  -9   62.45    1.65 
   0   0  -9   72.35    1.48 
   0   0  -9   71.50    1.47 
   0   0  -9   68.11    1.94 
   0   0  -9   72.15    2.07 
   0   0  -9   70.62    1.57 
   0   0  -9   64.62    1.85 
   0   0  -8   25.22    0.90 
   0   0  -8   25.63    1.16 
   0   0  -8   24.17    1.21 
   0   0  -8   25.63    0.86 
   0   0  -8   26.30    0.87 
   0   0  -8   25.35    0.85 
   0   0  -8   26.55    1.11 
   0   0  -8   26.27    1.24 
   0   0  -8   26.84    1.29 
   0   0  -8   26.57    1.29 
   0   0  -8   25.72    1.12 
   0   0  -8   26.03    1.30 
   0   0  -8   24.39    1.01 
   0   0  -7  209.23    3.22 
   0   0  -7  202.45    3.39 
   0   0  -7  201.12    3.39 
   0   0  -7  202.99    2.63 
   0   0  -7  204.39    2.63 
   0   0  -7  195.57    2.59 
   0   0  -7  210.43    3.11 
   0   0  -7  211.59    3.38 
   0   0  -7  200.34    3.43 
   0   0  -7  209.22    3.52 
   0   0  -7  205.86    3.08 
   0   0  -7  213.86    3.51 
   0   0  -7  198.03    2.92 
   0   0  -6  135.21    2.28 
   0   0  -6  128.82    2.42 
   0   0  -6  132.67    2.40 
   0   0  -6  126.42    1.78 
   0   0  -6  126.32    1.77 
   0   0  -6  123.44    1.75 
   0   0  -6  131.53    2.42 
   0   0  -6  136.05    2.40 
   0   0  -6  133.91    2.14 
   0   0  -6  134.68    2.47 
   0   0  -6  135.42    2.51 
   0   0  -5  159.89    2.50 
   0   0  -5  160.42    2.53 
   0   0  -5  161.85    2.22 
   0   0  -5  159.82    2.46 
   0   0  -5  163.52    2.48 
   0   0  -5  160.79    2.46 
   0   0  -5  162.26    2.48 
   0   0  -5  161.29    2.35 
   0   0  -4  587.75    6.25 
   0   0  -4  613.28    6.31 
   0   0  -4  601.71    6.06 
   0   0  -4  637.23    6.38 
   0   0  -4  590.95    6.13 
   0   0  -4  635.74    6.36 
   0   0  -4  589.25    6.34 
   0   0  -4  580.85    6.31 
   0   0  -3  267.50    3.09 
   0   0  -3  280.13    3.14 
   0   0  -3  283.57    2.99 
   0   0  -3  306.79    3.22 
   0   0  -3  298.57    3.20 
   0   0  -3  267.87    3.13 
   0   0  -3  272.89    3.15 
   0   0  -2 1072.12    9.85 
   0   0  -2 1072.69    9.96 
   0   0  -1  171.11    1.68 
   0   0   1  152.88    1.54 
   0   0   1  153.50    1.55 
   0   0   2 1049.46    9.58 
   0   0   2 1055.89    9.59 
   0   0   2 1067.47    9.59 
   0   0   2 1055.13    9.59 
   0   0   2 1070.58    9.66 
   0   0   2 1016.68    9.60 
   0   0   2 1012.66    9.60 
   0   0   3  263.28    2.87 
   0   0   3  268.03    2.83 
   0   0   3  269.30    2.81 
   0   0   3  276.83    2.89 
   0   0   3  267.82    2.91 
   0   0   3  272.99    2.93 
   0   0   4  583.38    5.93 
   0   0   4  565.20    5.81 
   0   0   4  582.85    5.88 
   0   0   4  565.61    5.67 
   0   0   4  576.27    5.75 
   0   0   4  575.22    5.82 
   0   0   4  586.23    5.86 
   0   0   4  587.13    5.88 
   0   0   4  571.96    5.93 
   0   0   5  153.61    2.01 
   0   0   5  164.08    2.23 
   0   0   5  149.62    1.88 
   0   0   5  150.75    2.08 
   0   0   5  147.49    1.87 
   0   0   5  143.88    1.82 
   0   0   5  138.96    2.13 
   0   0   5  150.24    2.17 
   0   0   5  151.47    2.11 
   0   0   5  151.34    2.11 
   0   0   5  150.52    2.18 
   0   0   5  152.87    2.16 
   0   0   6  135.41    2.11 
   0   0   6  126.10    1.97 
   0   0   6  123.28    1.68 
   0   0   6  124.95    1.86 
   0   0   6  118.86    1.63 
   0   0   6  124.63    1.74 
   0   0   6  117.53    1.68 
   0   0   6  118.88    1.68 
   0   0   6  121.69    1.68 
   0   0   6  128.33    2.06 
   0   0   6  127.10    2.05 
   0   0   6  128.70    2.06 
   0   0   6  121.71    1.99 
   0   0   6  129.31    2.08 
   0   0   7  176.37    2.37 
   0   0   7  187.94    2.43 
   0   0   7  183.89    2.44 
   0   0   7  185.45    2.45 
   0   0   7  191.19    2.63 
   0   0   7  206.29    2.97 
   0   0   7  199.79    2.85 
   0   0   7  198.20    2.52 
   0   0   7  203.25    2.96 
   0   0   7  209.34    3.00 
   0   0   7  190.55    2.82 
   0   0   7  205.42    2.98 
   0   0   7  195.29    2.92 
   0   0   8   24.25    0.77 
   0   0   8   23.75    0.71 
   0   0   8   24.03    1.00 
   0   0   8   24.04    1.02 
   0   0   8   25.17    1.01 
   0   0   8   24.09    0.93 
   0   0   8   24.54    0.70 
   0   0   8   25.58    0.80 
   0   0   8   24.07    0.75 
   0   0   8   25.76    0.76 
   0   0   8   25.24    1.01 
   0   0   9   59.95    1.35 
   0   0   9   68.73    1.25 
   0   0   9   53.06    1.74 
   0   0   9   62.64    1.69 
   0   0   9   66.64    1.67 
   0   0   9   63.90    1.62 
   0   0   9   68.43    1.32 
   0   0   9   74.62    1.34 
   0   0   9   65.50    1.22 
   0   0   9   73.61    1.42 
   0   0   9   68.92    1.73 
   0   0  10   36.31    0.84 
   0   0  10   31.59    1.18 
   0   0  10   35.92    0.89 
   0   0  10   37.31    0.89 
   0   0  10   30.70    1.17 
   0   0  10   35.26    0.93 
   0   0  11    2.48    0.33 
   0   0  11    3.13    0.33 
   0   0  11    2.81    0.36 
   0   0  12    0.25    0.19 
   0   1 -12    7.13    0.34 
   0   1 -11   34.04    0.90 
   0   1 -11   38.72    0.95 
   0   1 -11   37.46    0.93 
   0   1 -11   33.82    0.85 
   0   1 -11   34.26    0.92 
   0   1 -11   36.15    0.93 
   0   1 -11   33.81    0.90 
   0   1 -10   35.75    1.23 
   0   1 -10   29.11    0.91 
   0   1 -10   35.00    1.22 
   0   1 -10   30.63    0.96 
   0   1 -10   31.59    0.96 
   0   1 -10   30.99    1.01 
   0   1 -10   26.20    1.02 
   0   1 -10   27.75    1.23 
   0   1 -10   25.89    1.10 
   0   1  -9   16.93    1.11 
   0   1  -9   16.09    1.09 
   0   1  -9   14.59    1.49 
   0   1  -9   16.13    0.75 
   0   1  -9   14.47    1.47 
   0   1  -9   18.29    0.80 
   0   1  -9   17.60    0.79 
   0   1  -9   17.80    0.83 
   0   1  -9   17.62    1.13 
   0   1  -9   16.25    1.06 
   0   1  -9   16.02    1.02 
   0   1  -9   15.10    0.96 
   0   1  -9   14.18    1.03 
   0   1  -8   22.41    0.85 
   0   1  -8   22.16    0.84 
   0   1  -8   20.68    1.06 
   0   1  -8   23.50    1.21 
   0   1  -8   23.22    1.19 
   0   1  -8   22.03    1.04 
   0   1  -8   11.52    1.13 
   0   1  -8   12.82    1.14 
   0   1  -8   20.93    0.80 
   0   1  -7    3.11    0.60 
   0   1  -7    2.86    0.46 
   0   1  -7    3.39    0.61 
   0   1  -7    2.82    0.44 
   0   1  -7    3.06    0.46 
   0   1  -7    2.72    0.54 
   0   1  -7    2.23    0.48 
   0   1  -7    1.65    0.62 
   0   1  -7    2.14    0.64 
   0   1  -7    3.11    0.55 
   0   1  -6   64.89    1.21 
   0   1  -6   66.76    1.46 
   0   1  -6   65.95    1.21 
   0   1  -6   67.47    1.52 
   0   1  -6   67.39    1.65 
   0   1  -6   64.58    1.62 
   0   1  -6   64.41    1.18 
   0   1  -5   56.78    1.25 
   0   1  -5   56.52    1.02 
   0   1  -5   56.79    1.01 
   0   1  -5   55.88    1.25 
   0   1  -5   53.89    1.39 
   0   1  -5   55.15    1.21 
   0   1  -4    8.20    0.49 
   0   1  -4    9.13    0.60 
   0   1  -4    8.38    0.49 
   0   1  -4    8.71    0.50 
   0   1  -3   70.70    1.12 
   0   1  -3   71.23    1.12 
   0   1  -2    0.06    0.25 
   0   1  -2    0.30    0.20 
   0   1  -2    0.34    0.23 
   0   1  -1  550.39    4.71 
   0   1  -1  432.81    4.70 
   0   1   1  341.47    3.19 
   0   1   1  344.10    3.34 
   0   1   1  341.96    3.34 
   0   1   1  351.80    3.35 
   0   1   2    0.13    0.09 
   0   1   2    0.23    0.16 
   0   1   2    0.14    0.16 
   0   1   3  142.56    1.87 
   0   1   3  156.65    1.90 
   0   1   3  158.49    1.90 
   0   1   3  163.75    1.85 
   0   1   3  169.60    1.96 
   0   1   3  154.53    1.84 
   0   1   3  156.12    1.84 
   0   1   3  145.87    1.91 
   0   1   4   69.40    1.19 
   0   1   4   68.45    1.19 
   0   1   4   61.89    1.09 
   0   1   4   61.11    1.08 
   0   1   4   64.50    1.06 
   0   1   4   68.17    1.18 
   0   1   4   59.19    1.18 
   0   1   4   61.65    1.16 
   0   1   4   58.68    1.10 
   0   1   5  132.50    2.00 
   0   1   5  130.01    1.92 
   0   1   5  127.97    1.85 
   0   1   5  138.87    2.00 
   0   1   5  128.64    1.93 
   0   1   5  126.80    1.69 
   0   1   5  128.12    1.70 
   0   1   5  128.90    1.93 
   0   1   5  127.77    1.93 
   0   1   5  126.69    1.99 
   0   1   5  132.32    2.02 
   0   1   5  127.96    1.90 
   0   1   5  144.49    2.06 
   0   1   5  146.62    2.07 
   0   1   6  213.99    2.64 
   0   1   6  214.61    2.64 
   0   1   6  221.67    2.86 
   0   1   6  225.40    3.01 
   0   1   6  239.51    3.04 
   0   1   6  214.93    2.61 
   0   1   6  214.31    3.00 
   0   1   6  216.07    3.01 
   0   1   6  222.97    3.03 
   0   1   6  219.87    3.09 
   0   1   6  222.62    2.95 
   0   1   6  230.38    3.09 
   0   1   6  228.49    2.98 
   0   1   7    2.26    0.32 
   0   1   7    2.62    0.43 
   0   1   7    2.04    0.35 
   0   1   7    2.35    0.38 
   0   1   7    2.19    0.38 
   0   1   7    1.94    0.35 
   0   1   7    2.07    0.29 
   0   1   7    1.72    0.29 
   0   1   7    2.21    0.38 
   0   1   7    2.21    0.39 
   0   1   7    2.67    0.50 
   0   1   7    2.19    0.45 
   0   1   7    2.70    0.38 
   0   1   7    1.87    0.38 
   0   1   7    1.85    0.30 
   0   1   8   87.45    1.62 
   0   1   8   91.00    1.63 
   0   1   8   91.75    1.63 
   0   1   8   81.42    1.72 
   0   1   8   92.94    1.95 
   0   1   8   95.92    1.94 
   0   1   8   97.46    1.61 
   0   1   8   91.61    1.54 
   0   1   8   98.81    1.57 
   0   1   8   90.83    1.90 
   0   1   8   92.07    1.98 
   0   1   8   89.69    2.04 
   0   1   8   89.25    1.49 
   0   1   8   95.42    2.04 
   0   1   8   96.83    1.93 
   0   1   9    3.64    0.37 
   0   1   9    3.38    0.59 
   0   1   9    3.30    0.46 
   0   1   9    3.32    0.41 
   0   1   9    3.43    0.39 
   0   1   9    3.16    0.53 
   0   1   9    3.66    0.46 
   0   1   9    3.40    0.38 
   0   1  10    6.42    0.49 
   0   1  10    5.93    0.65 
   0   1  10    7.43    0.48 
   0   1  10    7.09    0.43 
   0   1  11   49.64    0.96 
   0   1  11   51.91    0.93 
   0   1  12    0.35    0.19 
   0   1  12    0.15    0.22 
   0   2 -12    7.83    0.36 
   0   2 -12    7.06    0.33 
   0   2 -11    1.15    0.34 
   0   2 -11    0.95    0.37 
   0   2 -11    1.04    0.33 
   0   2 -11    0.84    0.35 
   0   2 -11    0.74    0.37 
   0   2 -11    1.22    0.36 
   0   2 -10    7.22    0.62 
   0   2 -10    7.26    0.61 
   0   2 -10    5.90    0.49 
   0   2 -10    6.49    0.53 
   0   2 -10    6.72    0.54 
   0   2 -10    5.73    0.56 
   0   2 -10    5.27    0.57 
   0   2 -10    5.41    0.68 
   0   2 -10    5.80    0.71 
   0   2 -10    5.22    0.61 
   0   2  -9    0.28    0.53 
   0   2  -9    0.32    0.59 
   0   2  -9    0.51    0.42 
   0   2  -9    0.99    0.66 
   0   2  -9    1.18    0.67 
   0   2  -9    0.58    0.45 
   0   2  -9    0.42    0.44 
   0   2  -9    0.35    0.45 
   0   2  -9    0.39    0.59 
   0   2  -9    0.25    0.53 
   0   2  -9    0.55    0.54 
   0   2  -9    0.57    0.57 
   0   2  -9    0.92    0.50 
   0   2  -9    0.20    0.46 
   0   2  -8    0.30    0.55 
   0   2  -8    0.42    0.39 
   0   2  -8   -0.09    0.61 
   0   2  -8    0.48    0.45 
   0   2  -8    0.98    1.03 
   0   2  -8    0.31    1.02 
   0   2  -8    0.37    0.45 
   0   2  -8    0.59    0.47 
   0   2  -8    0.17    0.59 
   0   2  -8    0.29    0.61 
   0   2  -8    0.22    0.55 
   0   2  -8    0.43    0.60 
   0   2  -8    0.25    0.50 
   0   2  -8    0.51    0.51 
   0   2  -7   39.29    1.40 
   0   2  -7   35.90    0.95 
   0   2  -7   39.64    1.43 
   0   2  -7   40.19    1.44 
   0   2  -7   26.77    1.42 
   0   2  -7   28.47    1.45 
   0   2  -7   39.25    1.02 
   0   2  -7   38.89    1.04 
   0   2  -7   39.38    1.04 
   0   2  -7   40.29    1.04 
   0   2  -7   39.27    1.41 
   0   2  -7   38.92    1.40 
   0   2  -7   40.79    1.36 
   0   2  -7   33.24    1.38 
   0   2  -7   40.62    1.41 
   0   2  -6    4.22    0.55 
   0   2  -6    4.32    0.56 
   0   2  -6    4.38    0.46 
   0   2  -6    3.91    0.45 
   0   2  -6    3.98    0.58 
   0   2  -6    3.93    0.57 
   0   2  -6    3.93    0.58 
   0   2  -6    4.28    0.60 
   0   2  -6    2.64    0.58 
   0   2  -6    4.19    0.65 
   0   2  -6    3.75    0.55 
   0   2  -5    2.32    0.49 
   0   2  -5    1.59    0.30 
   0   2  -5    2.15    0.49 
   0   2  -5    1.95    0.40 
   0   2  -5    1.93    0.40 
   0   2  -5    1.89    0.50 
   0   2  -5    2.04    0.51 
   0   2  -5    2.29    0.57 
   0   2  -5    2.19    0.52 
   0   2  -5    2.11    0.51 
   0   2  -5    2.16    0.50 
   0   2  -5    1.52    0.51 
   0   2  -4    3.54    0.50 
   0   2  -4    3.70    0.54 
   0   2  -4    3.69    0.52 
   0   2  -4    3.19    0.50 
   0   2  -4    4.39    0.61 
   0   2  -4    3.05    0.49 
   0   2  -4    3.75    0.54 
   0   2  -4    3.76    0.48 
   0   2  -4    4.16    0.51 
   0   2  -4    3.07    0.44 
   0   2  -3  189.88    2.20 
   0   2  -3  162.53    2.18 
   0   2  -3  159.80    2.16 
   0   2  -3  150.25    2.18 
   0   2  -3  198.80    2.20 
   0   2  -3  154.00    1.97 
   0   2  -2   73.28    1.22 
   0   2  -2   72.21    1.21 
   0   2  -2   75.79    1.24 
   0   2  -2   72.93    1.13 
   0   2  -1    3.85    0.27 
   0   2  -1    3.40    0.25 
   0   2  -1    3.19    0.25 
   0   2  -1    3.23    0.26 
   0   2  -1    3.91    0.38 
   0   2   0  313.21    3.11 
   0   2   0  303.87    3.12 
   0   2   0  372.81    3.31 
   0   2   0  338.04    3.32 
   0   2   0  362.94    3.38 
   0   2   1  364.57    3.55 
   0   2   1  356.32    3.72 
   0   2   1  357.75    3.72 
   0   2   2  104.15    1.22 
   0   2   2  107.52    1.42 
   0   2   2  106.66    1.42 
   0   2   3   91.85    1.46 
   0   2   3   93.61    1.50 
   0   2   3   92.77    1.37 
   0   2   3   93.48    1.43 
   0   2   3   92.81    1.37 
   0   2   3   83.64    1.02 
   0   2   3  100.76    1.36 
   0   2   3   95.80    1.31 
   0   2   3   84.76    1.36 
   0   2   3   93.65    1.33 
   0   2   4    8.84    0.56 
   0   2   4    8.82    0.41 
   0   2   4    9.01    0.41 
   0   2   4    9.33    0.49 
   0   2   4    8.75    0.48 
   0   2   4    7.71    0.53 
   0   2   4    9.28    0.49 
   0   2   4    7.49    0.49 
   0   2   5   20.69    0.73 
   0   2   5   20.74    0.63 
   0   2   5   19.77    0.59 
   0   2   5   21.56    0.74 
   0   2   5   21.16    0.64 
   0   2   5   18.94    0.61 
   0   2   5   19.81    0.62 
   0   2   5   23.46    0.82 
   0   2   5   23.38    0.81 
   0   2   5   21.71    0.81 
   0   2   5   21.40    0.69 
   0   2   6  249.42    2.98 
   0   2   6  236.00    2.94 
   0   2   6  234.96    2.94 
   0   2   6  229.54    2.91 
   0   2   6  237.45    3.22 
   0   2   6  257.80    3.20 
   0   2   6  247.89    3.43 
   0   2   6  244.56    3.31 
   0   2   6  254.72    3.10 
   0   2   6  282.10    3.57 
   0   2   6  233.50    3.43 
   0   2   6  283.08    3.59 
   0   2   7   35.41    0.95 
   0   2   7   36.35    0.96 
   0   2   7   38.06    1.25 
   0   2   7   37.72    0.85 
   0   2   7   36.42    0.89 
   0   2   7   39.00    1.08 
   0   2   7   34.88    1.06 
   0   2   7   36.91    1.16 
   0   2   7   38.43    1.03 
   0   2   8   10.08    0.54 
   0   2   8    9.36    0.48 
   0   2   8    9.98    0.71 
   0   2   8   10.60    0.81 
   0   2   8    9.82    0.51 
   0   2   8   10.00    0.62 
   0   2   8   10.23    0.62 
   0   2   9    5.45    0.45 
   0   2   9    4.73    0.40 
   0   2   9    5.03    0.69 
   0   2   9    4.48    0.63 
   0   2   9    4.37    0.54 
   0   2   9    4.42    0.55 
   0   2   9    5.40    0.59 
   0   2   9    5.36    0.42 
   0   2  10   13.07    0.56 
   0   2  10   12.87    0.79 
   0   2  10   13.50    0.59 
   0   2  11    2.76    0.31 
   0   3 -12    1.30    0.18 
   0   3 -11   38.89    0.82 
   0   3 -11   38.83    0.83 
   0   3 -11   40.52    0.83 
   0   3 -11   37.64    0.78 
   0   3 -11   37.95    0.79 
   0   3 -10   11.57    0.57 
   0   3 -10   11.75    0.58 
   0   3 -10   10.78    0.61 
   0   3 -10   11.52    0.63 
   0   3 -10    9.27    0.76 
   0   3 -10    9.61    0.72 
   0   3 -10    8.95    0.71 
   0   3 -10    9.21    0.67 
   0   3  -9   15.52    1.05 
   0   3  -9   19.53    0.87 
   0   3  -9   20.90    0.88 
   0   3  -9   17.09    0.70 
   0   3  -9   16.69    0.75 
   0   3  -9   17.40    0.76 
   0   3  -9   14.03    1.00 
   0   3  -9   14.14    0.95 
   0   3  -9   13.70    0.94 
   0   3  -9   14.85    0.94 
   0   3  -9   14.65    0.64 
   0   3  -8   99.76    1.74 
   0   3  -8  115.90    2.59 
   0   3  -8  109.99    1.84 
   0   3  -8  110.50    1.93 
   0   3  -8  110.98    1.93 
   0   3  -8  112.35    1.92 
   0   3  -8  103.19    2.42 
   0   3  -8  110.39    2.48 
   0   3  -8  100.90    2.32 
   0   3  -8   95.30    2.31 
   0   3  -8  111.42    2.40 
   0   3  -8   91.63    2.36 
   0   3  -8   89.65    2.40 
   0   3  -7   31.25    1.30 
   0   3  -7   30.80    1.30 
   0   3  -7   34.84    1.04 
   0   3  -7   34.03    1.33 
   0   3  -7   32.42    0.95 
   0   3  -7   38.64    1.09 
   0   3  -7   34.77    0.99 
   0   3  -7   35.96    1.04 
   0   3  -7   35.30    1.04 
   0   3  -7   30.62    1.16 
   0   3  -7   37.80    1.39 
   0   3  -7   32.55    1.30 
   0   3  -7   38.07    1.36 
   0   3  -7   30.58    1.26 
   0   3  -7   30.29    1.43 
   0   3  -6   18.57    0.94 
   0   3  -6   18.76    0.96 
   0   3  -6   16.98    1.02 
   0   3  -6   19.81    0.78 
   0   3  -6   18.91    0.97 
   0   3  -6   18.18    0.99 
   0   3  -6   17.71    0.69 
   0   3  -6   20.07    0.79 
   0   3  -6   18.85    0.73 
   0   3  -6   19.26    0.75 
   0   3  -6   12.14    1.06 
   0   3  -6   19.49    0.76 
   0   3  -6   15.64    1.01 
   0   3  -6   22.02    1.04 
   0   3  -6   16.87    0.91 
   0   3  -6   20.21    1.01 
   0   3  -6   17.67    0.93 
   0   3  -5    3.99    0.57 
   0   3  -5    3.70    0.44 
   0   3  -5    4.14    0.58 
   0   3  -5    3.11    0.41 
   0   3  -5    3.41    0.42 
   0   3  -5    1.34    1.21 
   0   3  -5    3.52    0.58 
   0   3  -5    3.86    0.60 
   0   3  -5    2.72    0.81 
   0   3  -5    3.15    0.50 
   0   3  -5    3.85    0.51 
   0   3  -4   95.35    1.73 
   0   3  -4   89.15    1.66 
   0   3  -4   30.99    1.53 
   0   3  -4   82.94    1.37 
   0   3  -4  103.40    1.65 
   0   3  -4  103.60    1.65 
   0   3  -4   76.10    1.28 
   0   3  -4   55.41    1.36 
   0   3  -4   87.69    1.65 
   0   3  -4   72.02    1.44 
   0   3  -4   87.78    1.63 
   0   3  -4   85.47    1.70 
   0   3  -4   84.18    1.69 
   0   3  -3  104.72    1.78 
   0   3  -3  114.03    1.63 
   0   3  -3  114.42    1.63 
   0   3  -3  105.41    1.67 
   0   3  -3  106.27    2.04 
   0   3  -3   98.79    1.57 
   0   3  -3   92.68    1.59 
   0   3  -3   95.71    1.45 
   0   3  -3  101.25    1.76 
   0   3  -2  478.30    5.23 
   0   3  -2  478.66    5.01 
   0   3  -2  459.56    5.06 
   0   3  -2  474.38    5.20 
   0   3  -2  466.67    5.22 
   0   3  -1   61.34    1.05 
   0   3  -1   66.20    1.08 
   0   3  -1   64.18    1.14 
   0   3  -1   62.39    1.18 
   0   3  -1   61.28    1.09 
   0   3  -1   63.53    1.15 
   0   3   0  257.68    2.89 
   0   3   0  247.58    2.80 
   0   3   0  233.41    2.45 
   0   3   0  294.71    3.12 
   0   3   0  286.92    3.12 
   0   3   0  254.44    2.71 
   0   3   0  226.50    2.26 
   0   3   1  367.20    3.80 
   0   3   1  365.79    3.99 
   0   3   1  358.30    3.55 
   0   3   1  357.24    3.80 
   0   3   1  362.56    3.95 
   0   3   2    1.04    0.36 
   0   3   2    0.87    0.32 
   0   3   2    1.18    0.29 
   0   3   2    1.12    0.28 
   0   3   2    1.04    0.39 
   0   3   2    1.08    0.23 
   0   3   2    1.18    0.41 
   0   3   3   59.06    1.21 
   0   3   3   62.09    1.29 
   0   3   3   55.28    0.93 
   0   3   3   55.31    0.95 
   0   3   3   59.18    1.16 
   0   3   3   61.81    1.15 
   0   3   3   58.40    1.16 
   0   3   3   57.02    0.96 
   0   3   4  195.51    2.40 
   0   3   4  210.66    2.84 
   0   3   4  185.66    2.40 
   0   3   4  222.66    2.95 
   0   3   4  203.56    2.48 
   0   3   4  209.01    2.40 
   0   3   4  212.00    2.77 
   0   3   4  211.72    2.78 
   0   3   4  223.15    2.78 
   0   3   4  163.41    2.83 
   0   3   4  180.99    2.74 
   0   3   4  212.41    2.52 
   0   3   4  213.25    2.53 
   0   3   5    1.60    0.31 
   0   3   5    1.42    0.44 
   0   3   5    0.69    0.42 
   0   3   5    0.78    0.38 
   0   3   5    1.27    0.45 
   0   3   5    1.31    0.32 
   0   3   5    1.69    0.33 
   0   3   5    1.50    0.37 
   0   3   5    1.14    0.39 
   0   3   5    1.21    0.36 
   0   3   6    0.47    0.42 
   0   3   6   -0.12    0.42 
   0   3   6    0.17    0.39 
   0   3   6    0.48    0.32 
   0   3   6    0.47    0.43 
   0   3   6    0.35    0.34 
   0   3   6    0.49    0.34 
   0   3   6    0.37    0.27 
   0   3   7    6.14    0.51 
   0   3   7    6.25    0.67 
   0   3   7    6.75    0.67 
   0   3   7    5.66    0.45 
   0   3   7    5.57    0.39 
   0   3   7    6.17    0.67 
   0   3   7    5.73    0.56 
   0   3   7    6.13    0.53 
   0   3   7    5.67    0.53 
   0   3   8   12.37    0.69 
   0   3   8   12.41    0.70 
   0   3   8   12.14    0.61 
   0   3   8   14.34    0.91 
   0   3   8   12.55    0.52 
   0   3   8   14.27    0.67 
   0   3   8   13.61    0.78 
   0   3   9   40.27    1.01 
   0   3   9   41.21    0.88 
   0   3   9   43.32    1.09 
   0   3   9   42.07    1.29 
   0   3   9   41.53    1.12 
   0   3   9   41.34    1.11 
   0   3  10    4.98    0.41 
   0   3  10    5.28    0.42 
   0   3  10    4.79    0.45 
   0   3  11    2.12    0.26 
   0   3  11    2.08    0.31 
   0   3  12    0.13    0.13 
   0   4 -10    3.96    0.36 
   0   4 -10    4.40    0.44 
   0   4 -10    4.26    0.36 
   0   4 -10    4.69    0.44 
   0   4 -10    4.54    0.44 
   0   4  -9    6.86    0.53 
   0   4  -9    4.78    0.66 
   0   4  -9    4.09    0.54 
   0   4  -9    4.26    0.59 
   0   4  -9    5.14    0.47 
   0   4  -9    4.77    0.47 
   0   4  -9    5.94    0.54 
   0   4  -9    4.90    0.45 
   0   4  -9    4.84    0.69 
   0   4  -8    2.44    0.51 
   0   4  -8    1.19    0.58 
   0   4  -8    1.70    0.62 
   0   4  -8    1.09    0.53 
   0   4  -8    1.56    0.51 
   0   4  -8    2.38    0.44 
   0   4  -8    1.38    0.43 
   0   4  -8    1.70    0.48 
   0   4  -8    1.62    0.50 
   0   4  -8    1.32    0.63 
   0   4  -8    1.17    0.58 
   0   4  -8    1.40    0.43 
   0   4  -8    1.57    0.61 
   0   4  -7    2.61    0.56 
   0   4  -7    3.51    0.57 
   0   4  -7    3.73    0.54 
   0   4  -7    4.05    0.70 
   0   4  -7    3.31    0.65 
   0   4  -7    2.88    0.48 
   0   4  -7    4.97    0.56 
   0   4  -7    3.75    0.46 
   0   4  -7    4.01    0.50 
   0   4  -7    3.93    0.49 
   0   4  -7    3.46    0.45 
   0   4  -7    3.72    0.66 
   0   4  -7    3.36    0.60 
   0   4  -7    2.73    0.57 
   0   4  -7    3.95    0.67 
   0   4  -7    3.88    0.70 
   0   4  -6    1.35    0.46 
   0   4  -6    1.51    0.48 
   0   4  -6    1.40    0.49 
   0   4  -6    1.31    0.43 
   0   4  -6    1.99    0.47 
   0   4  -6    1.99    0.54 
   0   4  -6    1.20    0.53 
   0   4  -6    1.49    0.41 
   0   4  -6    1.73    0.43 
   0   4  -6    1.63    0.44 
   0   4  -6    1.04    0.60 
   0   4  -6    1.05    0.57 
   0   4  -6    1.45    0.58 
   0   4  -6    2.38    0.59 
   0   4  -6    1.51    0.52 
   0   4  -6    1.19    0.48 
   0   4  -6    0.62    0.59 
   0   4  -5   51.63    1.73 
   0   4  -5   65.86    1.35 
   0   4  -5   69.91    1.46 
   0   4  -5   72.94    1.48 
   0   4  -5   62.04    1.26 
   0   4  -5   61.63    1.26 
   0   4  -5   67.90    1.36 
   0   4  -5   62.21    1.54 
   0   4  -5   65.08    1.66 
   0   4  -5   64.69    1.69 
   0   4  -5   56.25    1.45 
   0   4  -5   55.73    1.54 
   0   4  -5   55.33    1.52 
   0   4  -4    1.85    0.45 
   0   4  -4    2.25    0.38 
   0   4  -4    1.55    0.43 
   0   4  -4    1.98    0.43 
   0   4  -4    1.54    0.33 
   0   4  -4    1.63    0.33 
   0   4  -4    0.95    0.49 
   0   4  -4    2.01    0.43 
   0   4  -4    1.60    0.43 
   0   4  -4    2.00    0.48 
   0   4  -3   17.51    0.81 
   0   4  -3   15.87    0.60 
   0   4  -3   15.44    0.64 
   0   4  -3   16.06    0.65 
   0   4  -3   14.45    0.53 
   0   4  -3   16.46    0.62 
   0   4  -3   16.62    0.69 
   0   4  -3   15.29    0.54 
   0   4  -3   14.03    0.74 
   0   4  -3   15.39    0.74 
   0   4  -3   14.81    0.75 
   0   4  -3   13.40    0.69 
   0   4  -2   25.84    0.68 
   0   4  -2   25.50    0.71 
   0   4  -2   25.45    0.71 
   0   4  -2   24.07    0.88 
   0   4  -2   25.50    0.84 
   0   4  -2   25.77    0.86 
   0   4  -2   25.67    0.76 
   0   4  -2   23.80    0.85 
   0   4  -2   26.23    0.86 
   0   4  -2   25.72    0.80 
   0   4  -2   25.91    0.79 
   0   4  -2   27.96    0.89 
   0   4  -1   78.89    1.53 
   0   4  -1   76.13    1.41 
   0   4  -1   77.86    1.47 
   0   4  -1   80.06    1.32 
   0   4  -1   82.99    1.25 
   0   4  -1   81.84    1.39 
   0   4  -1   81.13    1.24 
   0   4  -1   81.88    1.24 
   0   4  -1   83.34    1.33 
   0   4   0   67.07    1.16 
   0   4   0   69.88    1.49 
   0   4   0   76.11    1.52 
   0   4   0   71.83    1.50 
   0   4   0   62.84    1.02 
   0   4   0   62.82    1.02 
   0   4   0   75.66    1.40 
   0   4   0   65.02    1.35 
   0   4   0   63.20    1.30 
   0   4   0   63.51    1.05 
   0   4   1  215.99    2.56 
   0   4   1  230.57    2.98 
   0   4   1  223.90    3.04 
   0   4   1  235.92    3.03 
   0   4   1  194.99    2.41 
   0   4   1  198.45    2.44 
   0   4   1  238.72    2.87 
   0   4   1  213.29    2.47 
   0   4   1  221.43    2.89 
   0   4   2    2.43    0.45 
   0   4   2    2.53    0.38 
   0   4   2    3.03    0.39 
   0   4   2    2.33    0.38 
   0   4   2    2.79    0.38 
   0   4   2    3.00    0.47 
   0   4   2    2.76    0.30 
   0   4   2    3.15    0.45 
   0   4   3    0.57    0.31 
   0   4   3    0.39    0.30 
   0   4   3    0.35    0.28 
   0   4   3    0.21    0.37 
   0   4   3    0.35    0.33 
   0   4   3    0.36    0.32 
   0   4   3    0.47    0.43 
   0   4   3    0.59    0.27 
   0   4   3    0.75    0.41 
   0   4   4    0.81    0.30 
   0   4   4    1.09    0.43 
   0   4   4    0.67    0.42 
   0   4   4    0.37    0.28 
   0   4   4    0.72    0.39 
   0   4   4    1.01    0.33 
   0   4   4    1.03    0.33 
   0   4   4    0.51    0.31 
   0   4   4    0.79    0.34 
   0   4   4    1.09    0.34 
   0   4   5   12.16    0.52 
   0   4   5   14.09    0.65 
   0   4   5   13.49    0.64 
   0   4   5   13.39    0.59 
   0   4   5   12.17    0.49 
   0   4   5   12.57    0.48 
   0   4   5   13.27    0.77 
   0   4   5   13.35    0.80 
   0   4   5   12.28    0.68 
   0   4   5   13.17    0.74 
   0   4   5   13.50    0.75 
   0   4   5   12.98    0.72 
   0   4   6  232.62    3.05 
   0   4   6  232.49    2.87 
   0   4   6  228.47    2.81 
   0   4   6  243.50    3.59 
   0   4   6  257.97    3.80 
   0   4   6  242.73    3.65 
   0   4   6  241.08    3.65 
   0   4   6  255.58    3.30 
   0   4   6  254.34    2.99 
   0   4   6  213.55    2.90 
   0   4   7   11.24    0.65 
   0   4   7   10.92    0.82 
   0   4   7   11.56    0.61 
   0   4   7    9.80    0.51 
   0   4   8   65.48    1.75 
   0   4   8   65.14    1.30 
   0   4   9   38.53    0.84 
   0   4   9   38.63    1.35 
   0   4   9   38.42    1.42 
   0   4   9   40.92    0.99 
   0   4   9   36.79    1.05 
   0   4   9   38.56    1.06 
   0   4  10    0.38    0.27 
   0   4  11   19.09    0.49 
   0   5 -10   56.08    1.06 
   0   5 -10   53.28    0.99 
   0   5  -9    5.03    0.47 
   0   5  -9    4.70    0.45 
   0   5  -9    5.27    0.44 
   0   5  -8    7.77    0.57 
   0   5  -8    5.44    0.66 
   0   5  -8    5.27    0.67 
   0   5  -8    6.47    0.48 
   0   5  -8    6.66    0.48 
   0   5  -8    6.20    0.50 
   0   5  -8    7.16    0.56 
   0   5  -8    7.18    0.54 
   0   5  -8    5.43    0.71 
   0   5  -7   11.06    0.69 
   0   5  -7   10.01    0.64 
   0   5  -7    9.04    0.82 
   0   5  -7    8.80    0.52 
   0   5  -7   10.27    0.64 
   0   5  -7    9.60    0.60 
   0   5  -7   12.72    0.71 
   0   5  -7   11.55    0.70 
   0   5  -7   11.42    0.71 
   0   5  -7    9.40    0.60 
   0   5  -7    9.29    0.60 
   0   5  -7    8.33    0.51 
   0   5  -7    9.72    0.87 
   0   5  -7    9.47    0.85 
   0   5  -7    9.95    0.91 
   0   5  -6    1.00    0.58 
   0   5  -6    1.03    0.49 
   0   5  -6    0.53    0.39 
   0   5  -6    0.76    0.42 
   0   5  -6    1.25    0.49 
   0   5  -6    0.81    0.44 
   0   5  -6    1.31    0.49 
   0   5  -6    1.10    0.49 
   0   5  -6    0.94    0.37 
   0   5  -6    1.19    0.39 
   0   5  -6    0.79    0.57 
   0   5  -6    1.00    0.54 
   0   5  -6    1.06    0.56 
   0   5  -5   69.03    1.82 
   0   5  -5   70.51    1.81 
   0   5  -5   92.55    2.08 
   0   5  -5   90.46    2.09 
   0   5  -5   81.36    1.45 
   0   5  -5   91.56    1.64 
   0   5  -5  103.50    1.80 
   0   5  -5  104.54    1.83 
   0   5  -5  104.10    1.83 
   0   5  -5   90.83    1.64 
   0   5  -5   90.22    1.64 
   0   5  -5   96.94    1.71 
   0   5  -5   97.71    2.19 
   0   5  -5   88.87    2.28 
   0   5  -4    1.44    0.43 
   0   5  -4    1.60    0.44 
   0   5  -4    2.41    0.47 
   0   5  -4    1.75    0.43 
   0   5  -4    2.53    0.49 
   0   5  -4    2.00    0.48 
   0   5  -4    2.26    0.44 
   0   5  -4    2.62    0.48 
   0   5  -4    2.94    0.48 
   0   5  -4    2.07    0.37 
   0   5  -4    2.28    0.38 
   0   5  -4    1.83    0.56 
   0   5  -4    2.37    0.55 
   0   5  -4    0.42    0.55 
   0   5  -4    2.02    0.51 
   0   5  -4    0.53    0.52 
   0   5  -3   32.08    1.11 
   0   5  -3   35.19    0.93 
   0   5  -3   34.52    0.93 
   0   5  -3   34.79    0.94 
   0   5  -3   34.29    0.87 
   0   5  -3   37.25    0.99 
   0   5  -3   29.64    0.80 
   0   5  -3   30.64    0.86 
   0   5  -3   20.97    1.17 
   0   5  -3   33.20    1.10 
   0   5  -3   34.04    1.11 
   0   5  -3   33.39    1.03 
   0   5  -3   30.68    1.11 
   0   5  -3   19.06    1.19 
   0   5  -2   20.68    0.72 
   0   5  -2   22.41    0.79 
   0   5  -2   20.93    0.73 
   0   5  -2   21.28    0.72 
   0   5  -2   20.55    0.70 
   0   5  -2   17.95    1.06 
   0   5  -2   20.50    0.93 
   0   5  -2   17.95    1.05 
   0   5  -2   21.44    0.86 
   0   5  -2   13.28    0.86 
   0   5  -2   22.07    0.90 
   0   5  -2   16.92    0.80 
   0   5  -1   66.52    1.26 
   0   5  -1   62.93    1.22 
   0   5  -1   57.39    1.61 
   0   5  -1   60.06    1.12 
   0   5  -1   60.50    1.13 
   0   5  -1   61.75    1.16 
   0   5  -1   64.01    1.46 
   0   5   0  176.27    2.27 
   0   5   0  159.77    2.08 
   0   5   0  128.46    2.84 
   0   5   0  157.57    2.07 
   0   5   0  194.31    2.75 
   0   5   0  160.48    2.15 
   0   5   0  141.36    2.09 
   0   5   0  172.34    2.62 
   0   5   0  163.26    2.55 
   0   5   1   36.88    0.87 
   0   5   1   31.63    0.79 
   0   5   1   35.12    0.86 
   0   5   1   33.96    1.13 
   0   5   1   34.52    1.15 
   0   5   1   32.59    1.21 
   0   5   1   33.92    0.90 
   0   5   1   31.86    0.79 
   0   5   1   37.31    1.16 
   0   5   1   31.71    0.82 
   0   5   1   35.49    1.13 
   0   5   2   51.32    1.13 
   0   5   2   50.14    1.36 
   0   5   2   51.05    1.38 
   0   5   2   51.23    1.42 
   0   5   2   54.51    1.11 
   0   5   2   54.29    1.12 
   0   5   2   50.29    1.07 
   0   5   3    9.43    0.63 
   0   5   3    9.50    0.64 
   0   5   3    7.58    0.66 
   0   5   3    8.50    0.50 
   0   5   3   10.10    0.67 
   0   5   3    7.52    0.70 
   0   5   3    9.67    0.56 
   0   5   3    9.28    0.55 
   0   5   4   15.12    0.66 
   0   5   4   13.68    0.78 
   0   5   4   12.37    0.75 
   0   5   4   12.97    0.69 
   0   5   4   14.67    0.73 
   0   5   4   11.89    0.61 
   0   5   4   14.17    0.84 
   0   5   4   14.80    0.69 
   0   5   4   13.71    0.68 
   0   5   4   14.90    0.62 
   0   5   5   57.90    1.29 
   0   5   5   53.46    1.56 
   0   5   5   53.58    1.57 
   0   5   5   51.08    1.34 
   0   5   5   60.59    1.51 
   0   5   5   59.83    1.66 
   0   5   5   59.58    1.34 
   0   5   5   60.16    1.35 
   0   5   5   55.25    1.12 
   0   5   6  195.60    2.76 
   0   5   6  185.40    3.28 
   0   5   6  184.34    3.27 
   0   5   6  200.20    3.14 
   0   5   6  158.35    3.39 
   0   5   6  209.64    2.87 
   0   5   6  212.24    2.89 
   0   5   6  179.11    2.58 
   0   5   6  196.63    2.54 
   0   5   6  189.63    2.86 
   0   5   7  114.34    1.97 
   0   5   7  112.84    1.97 
   0   5   7   99.89    1.83 
   0   5   7  104.98    1.67 
   0   5   7  104.63    2.20 
   0   5   8    9.52    0.63 
   0   5   8    9.79    0.63 
   0   5   8    8.75    0.48 
   0   5   8    9.91    0.79 
   0   5   8    9.00    0.71 
   0   5   9    0.50    0.30 
   0   5  10    0.23    0.23 
   0   6  -9    1.74    0.29 
   0   6  -8   12.00    0.58 
   0   6  -8   12.19    0.59 
   0   6  -8   12.94    0.60 
   0   6  -7    7.08    0.55 
   0   6  -7    4.74    0.63 
   0   6  -7    4.49    0.65 
   0   6  -7    6.38    0.55 
   0   6  -7    7.01    0.55 
   0   6  -7    7.02    0.56 
   0   6  -7    7.09    0.53 
   0   6  -6   37.77    1.50 
   0   6  -6   37.80    1.02 
   0   6  -6   47.67    1.25 
   0   6  -6   46.75    1.25 
   0   6  -6   50.46    1.27 
   0   6  -6   40.80    1.00 
   0   6  -6   47.61    1.16 
   0   6  -5    0.56    0.44 
   0   6  -5    0.66    0.46 
   0   6  -5    0.71    0.50 
   0   6  -5    0.50    0.43 
   0   6  -5    0.64    0.46 
   0   6  -5    0.03    0.46 
   0   6  -5    0.45    0.53 
   0   6  -5    0.22    0.52 
   0   6  -5    0.24    0.52 
   0   6  -5    0.53    0.48 
   0   6  -5    0.64    0.39 
   0   6  -4   85.39    1.64 
   0   6  -4   84.39    1.62 
   0   6  -4   83.19    1.62 
   0   6  -4   70.89    1.90 
   0   6  -4   82.16    2.08 
   0   6  -4   82.21    1.56 
   0   6  -4   73.84    1.40 
   0   6  -4   83.28    1.56 
   0   6  -4   82.74    1.59 
   0   6  -4   59.92    2.06 
   0   6  -4   61.03    2.05 
   0   6  -4   80.65    1.93 
   0   6  -4   50.18    1.78 
   0   6  -3   27.53    0.92 
   0   6  -3   27.31    0.91 
   0   6  -3   26.37    0.89 
   0   6  -3   23.76    0.77 
   0   6  -3   23.97    1.28 
   0   6  -3   22.69    1.24 
   0   6  -3   24.40    1.06 
   0   6  -3   28.60    0.94 
   0   6  -3   28.83    0.95 
   0   6  -3   24.58    1.12 
   0   6  -3   17.84    1.03 
   0   6  -2   25.00    0.84 
   0   6  -2   29.74    0.90 
   0   6  -2   29.32    0.90 
   0   6  -2   24.20    0.81 
   0   6  -2   21.59    1.22 
   0   6  -2   23.00    1.24 
   0   6  -2   23.81    1.06 
   0   6  -2   26.38    0.87 
   0   6  -2   26.49    0.90 
   0   6  -2   24.53    0.97 
   0   6  -2   24.36    0.83 
   0   6  -1   79.29    1.46 
   0   6  -1   73.73    1.39 
   0   6  -1   91.23    1.65 
   0   6  -1   82.13    1.48 
   0   6  -1   90.03    1.58 
   0   6  -1   82.16    1.49 
   0   6  -1   91.12    2.02 
   0   6  -1   76.46    1.75 
   0   6  -1   80.05    1.52 
   0   6  -1   89.49    1.54 
   0   6  -1   88.36    1.52 
   0   6  -1   92.53    2.08 
   0   6  -1   88.55    1.90 
   0   6   0   48.01    1.50 
   0   6   0   45.62    1.12 
   0   6   0   42.67    1.03 
   0   6   0   43.88    1.04 
   0   6   0   48.11    1.11 
   0   6   0   45.60    1.08 
   0   6   0   42.12    1.03 
   0   6   0   46.47    1.40 
   0   6   1   71.61    1.44 
   0   6   1   62.28    1.29 
   0   6   1   63.05    1.74 
   0   6   1   62.69    1.75 
   0   6   1   72.69    1.82 
   0   6   1   62.23    1.28 
   0   6   1   71.87    1.78 
   0   6   2    1.05    0.41 
   0   6   2    0.18    0.44 
   0   6   2    0.06    0.40 
   0   6   2    0.32    0.33 
   0   6   2    0.02    0.48 
   0   6   2    0.16    0.38 
   0   6   2    0.24    0.38 
   0   6   2    0.95    0.52 
   0   6   2    0.62    0.38 
   0   6   2    0.31    0.37 
   0   6   3    1.46    0.47 
   0   6   3    1.47    0.54 
   0   6   3    0.79    0.44 
   0   6   3    1.38    0.39 
   0   6   3    0.52    0.53 
   0   6   3    0.84    0.42 
   0   6   3    0.90    0.41 
   0   6   3    0.92    0.53 
   0   6   3    1.53    0.43 
   0   6   3    1.11    0.42 
   0   6   4   40.06    1.56 
   0   6   4   44.65    1.07 
   0   6   4   47.65    1.17 
   0   6   4   39.75    1.14 
   0   6   4   44.85    1.37 
   0   6   4   40.17    1.21 
   0   6   4   49.20    1.21 
   0   6   4   49.43    1.21 
   0   6   4   38.64    1.39 
   0   6   4   39.36    1.41 
   0   6   5    9.75    0.65 
   0   6   5    6.20    0.60 
   0   6   5    7.48    0.54 
   0   6   5    3.99    0.66 
   0   6   5    9.79    0.80 
   0   6   5    9.80    0.67 
   0   6   5    9.82    0.67 
   0   6   5    7.48    0.75 
   0   6   5    7.35    0.74 
   0   6   6  188.98    2.64 
   0   6   6  200.59    3.32 
   0   6   6  188.14    2.90 
   0   6   6  200.09    2.84 
   0   6   6  204.75    2.86 
   0   6   6  208.01    2.87 
   0   6   7   20.70    0.73 
   0   6   7   21.30    1.00 
   0   6   7   22.31    0.84 
   0   6   7   20.74    0.82 
   0   6   7   20.95    0.80 
   0   6   8    2.34    0.34 
   0   6   8    2.53    0.41 
   0   6   8    2.26    0.40 
   0   6   9    1.65    0.47 
   0   6   9    2.88    0.26 
   0   7  -8    1.01    0.24 
   0   7  -8    1.13    0.25 
   0   7  -7   -0.25    0.30 
   0   7  -7   -0.01    0.29 
   0   7  -7    0.09    0.28 
   0   7  -6    2.14    0.42 
   0   7  -6    2.15    0.39 
   0   7  -6    2.83    0.41 
   0   7  -6    3.15    0.47 
   0   7  -6    2.21    0.39 
   0   7  -6    1.85    0.40 
   0   7  -5    6.77    0.76 
   0   7  -5    7.97    0.52 
   0   7  -5   10.24    0.62 
   0   7  -5    9.18    0.56 
   0   7  -5   11.09    0.64 
   0   7  -5   10.15    0.59 
   0   7  -5   11.09    0.64 
   0   7  -5   10.57    0.63 
   0   7  -4   17.11    1.09 
   0   7  -4   21.02    0.81 
   0   7  -4   19.90    0.86 
   0   7  -4   19.32    0.77 
   0   7  -4   23.36    0.87 
   0   7  -4   21.91    0.81 
   0   7  -4   19.83    0.83 
   0   7  -4   21.88    0.86 
   0   7  -3    0.22    0.38 
   0   7  -3    0.37    0.38 
   0   7  -3    0.06    0.48 
   0   7  -3    0.18    0.38 
   0   7  -3    0.58    0.39 
   0   7  -3    0.26    0.49 
   0   7  -3    0.29    0.41 
   0   7  -2   22.31    0.84 
   0   7  -2   19.84    0.73 
   0   7  -2   22.49    0.84 
   0   7  -2   23.81    0.87 
   0   7  -2   20.29    0.84 
   0   7  -2   17.40    1.15 
   0   7  -2   17.35    1.17 
   0   7  -2   17.62    1.10 
   0   7  -1   18.49    0.76 
   0   7  -1   16.98    0.75 
   0   7  -1   18.94    0.86 
   0   7  -1   19.19    0.82 
   0   7  -1   14.70    1.05 
   0   7  -1   16.33    1.09 
   0   7  -1   17.49    0.76 
   0   7  -1   20.22    0.84 
   0   7   0    0.09    0.50 
   0   7   0    0.26    0.52 
   0   7   0    0.77    0.53 
   0   7   0   -0.03    0.35 
   0   7   0    0.28    0.41 
   0   7   0    0.45    0.50 
   0   7   0    0.28    0.36 
   0   7   1    9.15    0.63 
   0   7   1    7.21    0.74 
   0   7   1    9.04    0.79 
   0   7   1    8.78    0.65 
   0   7   2    3.96    0.64 
   0   7   2    1.70    0.54 
   0   7   2    3.41    0.46 
   0   7   2    2.28    0.52 
   0   7   2    2.32    0.54 
   0   7   2    3.53    0.51 
   0   7   2    4.21    0.65 
   0   7   3    1.27    0.48 
   0   7   3    0.61    0.56 
   0   7   3    1.29    0.60 
   0   7   3    0.74    0.50 
   0   7   3    0.55    0.42 
   0   7   3    0.85    0.53 
   0   7   3    0.96    0.46 
   0   7   3    0.43    0.45 
   0   7   3    0.75    0.60 
   0   7   4    7.52    0.57 
   0   7   4    7.75    0.56 
   0   7   4    8.71    0.75 
   0   7   4    6.39    0.68 
   0   7   5    6.13    0.55 
   0   7   5    7.64    0.54 
   0   7   5    7.30    0.54 
   0   7   5    4.48    0.56 
   0   7   5    7.84    0.71 
   0   7   5    4.40    0.66 
   0   7   6    0.31    0.35 
   0   7   6    0.24    0.35 
   0   7   6    0.41    0.52 
   0   7   6    0.38    0.37 
   0   7   7    1.36    0.33 
   0   7   7    1.04    0.33 
   0   7   7    2.06    0.51 
   0   7   8   -0.02    0.41 
   0   7   9    3.09    0.25 
   0   8  -6    0.33    0.24 
   0   8  -6    0.62    0.29 
   0   8  -6    0.47    0.26 
   0   8  -5   -0.26    0.31 
   0   8  -5    0.31    0.33 
   0   8  -5    0.64    0.37 
   0   8  -5    0.30    0.31 
   0   8  -4   12.70    0.58 
   0   8  -4   12.20    0.60 
   0   8  -4   12.46    0.56 
   0   8  -4   13.65    0.62 
   0   8  -3    2.64    0.42 
   0   8  -3    2.90    0.43 
   0   8  -3    2.48    0.42 
   0   8  -2   17.14    0.73 
   0   8  -2   14.65    0.68 
   0   8  -2   17.34    0.74 
   0   8  -2   16.37    0.70 
   0   8  -1    3.60    0.46 
   0   8  -1    3.07    0.50 
   0   8  -1    3.00    0.39 
   0   8   0    0.57    0.58 
   0   8   0    0.19    0.50 
   0   8   0    0.17    0.36 
   0   8   1    0.70    0.56 
   0   8   1    0.49    0.38 
   0   8   1    0.24    0.49 
   0   8   2    3.91    0.48 
   0   8   2    3.71    0.45 
   0   8   3   10.54    0.67 
   0   8   3   11.65    0.66 
   0   8   3    9.97    0.62 
   0   8   4   31.78    0.95 
   0   8   4   29.65    0.94 
   0   8   5    9.67    0.59 
   0   8   6   13.67    0.57 
   0   9  -2    0.29    0.36 
   0   9  -1   10.18    0.54 
   0   9  -1    8.70    0.50 
   0   9   0    0.80    0.33 
   0   9   2    0.02    0.45 
   0   9   2    0.12    0.29 
   0   9   3    0.34    0.45 
   0   9   3    0.00    0.27 
   0   9   4    2.08    0.43 
   0   9   5    0.18    0.28 
   1  -9  -2   18.38    0.46 
   1  -9  -1    1.02    0.25 
   1  -9  -1    1.45    0.27 
   1  -9  -1    1.50    0.26 
   1  -9   0    2.69    0.30 
   1  -9   1   11.96    0.44 
   1  -9   1   11.04    0.42 
   1  -9   2   21.35    0.57 
   1  -9   2   20.48    0.57 
   1  -9   3   96.28    1.20 
   1  -8  -5    0.65    0.25 
   1  -8  -5    0.79    0.30 
   1  -8  -4    1.36    0.30 
   1  -8  -4    1.24    0.32 
   1  -8  -3   21.49    0.77 
   1  -8  -3   22.76    0.72 
   1  -8  -3   23.46    0.74 
   1  -8  -2    0.73    0.34 
   1  -8  -2    1.04    0.33 
   1  -8  -2    0.82    0.36 
   1  -8  -2    0.59    0.65 
   1  -8  -2    0.80    0.35 
   1  -8  -2    0.34    0.39 
   1  -8  -2    0.26    0.31 
   1  -8  -2    0.13    0.59 
   1  -8  -1    0.27    0.28 
   1  -8  -1    0.25    0.28 
   1  -8  -1    0.06    0.31 
   1  -8  -1    0.33    0.31 
   1  -8  -1   -0.12    0.37 
   1  -8  -1    0.35    0.33 
   1  -8  -1   -0.07    0.59 
   1  -8  -1    0.37    0.34 
   1  -8   0    0.20    0.29 
   1  -8   0    0.16    0.29 
   1  -8   0    0.57    0.59 
   1  -8   0    0.37    0.59 
   1  -8   0    0.15    0.53 
   1  -8   0   -0.02    0.35 
   1  -8   0    0.11    0.34 
   1  -8   1    8.11    0.44 
   1  -8   1    7.94    0.49 
   1  -8   1    7.97    0.48 
   1  -8   1    6.51    0.81 
   1  -8   1    6.70    0.83 
   1  -8   1    8.31    0.50 
   1  -8   1    7.25    0.64 
   1  -8   1    6.31    0.60 
   1  -8   1    6.00    0.75 
   1  -8   2    0.21    0.35 
   1  -8   2    0.13    0.34 
   1  -8   2    0.51    0.47 
   1  -8   2    0.44    0.34 
   1  -8   2    0.56    0.28 
   1  -8   2    0.48    0.30 
   1  -8   2    0.51    0.31 
   1  -8   2    0.31    0.35 
   1  -8   3    9.16    0.51 
   1  -8   3    9.06    0.50 
   1  -8   3    8.16    0.58 
   1  -8   3    8.97    0.46 
   1  -8   3    9.11    0.46 
   1  -8   3    7.29    0.69 
   1  -8   4   23.44    0.67 
   1  -8   4   22.96    0.87 
   1  -8   4   22.69    0.63 
   1  -8   4   21.97    0.60 
   1  -8   5    1.66    0.27 
   1  -8   5    2.17    0.31 
   1  -8   5    1.56    0.29 
   1  -8   5    1.77    0.24 
   1  -8   5    1.64    0.25 
   1  -8   7    0.17    0.13 
   1  -7  -7    1.42    0.33 
   1  -7  -7    1.42    0.32 
   1  -7  -6    0.12    0.28 
   1  -7  -6    0.19    0.38 
   1  -7  -6    0.21    0.31 
   1  -7  -5    4.20    0.43 
   1  -7  -5    2.97    0.55 
   1  -7  -4    1.86    3.98 
   1  -7  -4   -1.50    4.05 
   1  -7  -4    0.85    2.29 
   1  -7  -4    0.17    0.33 
   1  -7  -4   -0.11    0.44 
   1  -7  -4    0.01    0.34 
   1  -7  -4    0.30    0.31 
   1  -7  -3    1.75    0.43 
   1  -7  -3    2.87    0.41 
   1  -7  -3    2.98    0.43 
   1  -7  -3    2.14    4.06 
   1  -7  -3   -1.59    4.10 
   1  -7  -3    2.34    2.09 
   1  -7  -3    2.18    0.46 
   1  -7  -3    1.41    2.64 
   1  -7  -3    2.84    0.46 
   1  -7  -2    0.04    0.33 
   1  -7  -2   -0.05    0.33 
   1  -7  -2   -0.58    2.58 
   1  -7  -2   -0.01    0.36 
   1  -7  -2    0.01    0.35 
   1  -7  -2   -0.76    1.42 
   1  -7  -1    4.41    0.41 
   1  -7  -1    4.50    0.40 
   1  -7  -1    4.33    0.60 
   1  -7  -1    1.50    0.48 
   1  -7  -1    1.84    0.48 
   1  -7  -1    4.71    0.55 
   1  -7  -1    6.36    1.89 
   1  -7  -1    4.65    0.55 
   1  -7  -1    5.60    1.03 
   1  -7   0   21.81    1.07 
   1  -7   0   21.29    0.68 
   1  -7   0   23.62    0.78 
   1  -7   0   23.68    0.79 
   1  -7   0   30.43    1.67 
   1  -7   0   23.18    1.04 
   1  -7   0   23.13    1.03 
   1  -7   0   30.76    1.90 
   1  -7   0   32.78    1.94 
   1  -7   0   22.42    1.27 
   1  -7   0   20.32    1.16 
   1  -7   0   19.45    1.15 
   1  -7   1    0.05    0.34 
   1  -7   1   -0.28    0.59 
   1  -7   1   -0.14    0.77 
   1  -7   1   -0.47    0.57 
   1  -7   1    0.14    0.76 
   1  -7   1    0.50    0.60 
   1  -7   1   -0.05    0.33 
   1  -7   1    0.24    0.28 
   1  -7   1   -0.02    0.30 
   1  -7   1   -0.09    0.32 
   1  -7   1   -0.04    0.35 
   1  -7   1   -0.08    0.37 
   1  -7   1    0.15    0.73 
   1  -7   1    0.07    0.35 
   1  -7   2    3.87    0.50 
   1  -7   2    4.03    0.40 
   1  -7   2    3.06    0.43 
   1  -7   2    3.11    0.42 
   1  -7   2    1.72    0.46 
   1  -7   2    1.64    0.47 
   1  -7   2    4.22    0.67 
   1  -7   2    3.87    0.79 
   1  -7   2    4.44    0.67 
   1  -7   2    4.44    0.82 
   1  -7   2    3.72    0.53 
   1  -7   2    3.63    0.34 
   1  -7   2    3.96    0.49 
   1  -7   3   11.12    0.73 
   1  -7   3   11.14    0.56 
   1  -7   3    5.71    0.63 
   1  -7   3    5.70    0.63 
   1  -7   3   10.40    0.83 
   1  -7   3   11.94    0.97 
   1  -7   3   10.02    0.93 
   1  -7   3   10.46    0.82 
   1  -7   3   11.67    0.75 
   1  -7   3   11.66    0.60 
   1  -7   3   11.56    0.54 
   1  -7   4    4.46    0.38 
   1  -7   4    4.38    0.53 
   1  -7   4    5.05    0.42 
   1  -7   4    4.54    0.42 
   1  -7   4    4.56    0.43 
   1  -7   4    4.21    0.55 
   1  -7   4    4.32    0.44 
   1  -7   4    3.62    0.63 
   1  -7   4    3.31    0.65 
   1  -7   4    4.60    0.55 
   1  -7   4    4.85    0.56 
   1  -7   5   14.31    0.58 
   1  -7   5    7.13    0.61 
   1  -7   5    5.96    0.59 
   1  -7   5   14.92    0.55 
   1  -7   5   12.76    0.76 
   1  -7   5   14.00    0.74 
   1  -7   5   13.38    0.73 
   1  -7   5   10.75    0.80 
   1  -7   5   14.09    0.57 
   1  -7   5   12.46    0.75 
   1  -7   6   -0.13    0.27 
   1  -7   6    0.09    0.30 
   1  -7   6   -0.13    0.25 
   1  -7   6    0.02    0.22 
   1  -7   7   -0.08    0.24 
   1  -7   7    0.04    0.16 
   1  -7   7    0.21    0.20 
   1  -7   8    0.81    0.20 
   1  -7   8    0.71    0.22 
   1  -6  -9    5.04    0.32 
   1  -6  -8   42.58    0.84 
   1  -6  -8   40.98    0.98 
   1  -6  -8   40.98    0.97 
   1  -6  -7   21.21    0.79 
   1  -6  -7   20.13    0.98 
   1  -6  -6    5.49    0.51 
   1  -6  -6    0.40    3.41 
   1  -6  -6    3.79    3.62 
   1  -6  -6   -0.13    2.55 
   1  -6  -6    5.02    0.47 
   1  -6  -6    5.49    0.65 
   1  -6  -5  100.08    2.23 
   1  -6  -5   21.22    3.07 
   1  -6  -5   18.00    2.89 
   1  -6  -5   95.74    2.43 
   1  -6  -5   80.13    2.24 
   1  -6  -5  106.17    1.77 
   1  -6  -4   26.52    0.86 
   1  -6  -4   26.30    0.86 
   1  -6  -4   24.91    1.18 
   1  -6  -4    4.67    1.90 
   1  -6  -4    3.94    2.02 
   1  -6  -4   29.18    0.94 
   1  -6  -4   28.14    1.19 
   1  -6  -3    3.55    0.48 
   1  -6  -3    3.40    0.48 
   1  -6  -3    1.25    1.84 
   1  -6  -3    0.08    1.74 
   1  -6  -3    1.00    1.09 
   1  -6  -3    3.36    0.41 
   1  -6  -3    3.17    0.42 
   1  -6  -3    2.55    0.51 
   1  -6  -2    0.25    0.32 
   1  -6  -2    0.15    0.30 
   1  -6  -2    0.21    0.35 
   1  -6  -2    0.23    0.33 
   1  -6  -2   -0.07    0.26 
   1  -6  -2   -0.01    0.28 
   1  -6  -2   -0.18    1.28 
   1  -6  -1    3.90    0.48 
   1  -6  -1    3.80    0.49 
   1  -6  -1    4.01    0.38 
   1  -6  -1    4.40    0.38 
   1  -6   0   17.84    0.60 
   1  -6   0   18.05    0.64 
   1  -6   0   18.13    0.64 
   1  -6   0    6.34    2.94 
   1  -6   0    7.32    3.02 
   1  -6   0   23.36    1.55 
   1  -6   0   18.69    0.89 
   1  -6   0   14.02    2.51 
   1  -6   0   17.55    0.84 
   1  -6   0   19.51    0.88 
   1  -6   0   17.09    0.77 
   1  -6   1   22.06    0.90 
   1  -6   1   22.64    0.70 
   1  -6   1   24.32    0.74 
   1  -6   1   24.01    0.74 
   1  -6   1   22.54    1.18 
   1  -6   1   36.50    2.06 
   1  -6   1   33.57    1.98 
   1  -6   1   26.92    1.27 
   1  -6   1   21.97    1.17 
   1  -6   1   22.26    0.93 
   1  -6   1   23.55    0.96 
   1  -6   1   23.70    0.96 
   1  -6   1   23.12    0.91 
   1  -6   1   15.31    0.78 
   1  -6   2   25.24    0.73 
   1  -6   2   25.47    0.99 
   1  -6   2   18.57    0.88 
   1  -6   2   24.54    1.13 
   1  -6   2   26.39    0.77 
   1  -6   2   27.53    0.80 
   1  -6   2   26.92    0.79 
   1  -6   2   37.14    1.63 
   1  -6   2   27.18    1.27 
   1  -6   2   26.58    1.13 
   1  -6   2   27.95    1.29 
   1  -6   2   41.90    1.70 
   1  -6   2   26.29    1.00 
   1  -6   2   24.60    0.94 
   1  -6   3   17.38    0.70 
   1  -6   3   18.65    0.89 
   1  -6   3   18.75    0.66 
   1  -6   3   18.15    0.88 
   1  -6   3   19.30    0.69 
   1  -6   3   21.89    1.22 
   1  -6   3   18.92    1.07 
   1  -6   3   22.94    1.24 
   1  -6   3   19.59    1.10 
   1  -6   3   21.05    1.17 
   1  -6   3   14.65    0.81 
   1  -6   3   14.48    0.95 
   1  -6   3   16.82    0.76 
   1  -6   4    2.91    0.65 
   1  -6   4    2.81    0.46 
   1  -6   4    3.43    0.37 
   1  -6   4    2.78    0.47 
   1  -6   4    2.86    0.39 
   1  -6   4    2.43    0.61 
   1  -6   4    3.28    0.64 
   1  -6   4    2.74    0.59 
   1  -6   4    3.80    0.68 
   1  -6   4    2.76    0.49 
   1  -6   4    3.20    0.47 
   1  -6   4    2.75    0.43 
   1  -6   4    2.53    0.42 
   1  -6   5    0.19    0.26 
   1  -6   5   -0.14    0.34 
   1  -6   5    0.10    0.28 
   1  -6   5    0.34    0.30 
   1  -6   5    0.22    0.23 
   1  -6   5    0.21    0.34 
   1  -6   5    0.03    0.31 
   1  -6   5    0.04    0.48 
   1  -6   5   -0.08    0.32 
   1  -6   5   -0.08    0.25 
   1  -6   5   -0.13    0.46 
   1  -6   5   -0.08    0.46 
   1  -6   5   -0.26    0.45 
   1  -6   5    0.10    0.43 
   1  -6   6    0.37    0.40 
   1  -6   6    0.49    0.39 
   1  -6   6    0.20    0.24 
   1  -6   6    0.04    0.25 
   1  -6   6    0.25    0.28 
   1  -6   6    0.23    0.43 
   1  -6   6   -0.01    0.31 
   1  -6   6    0.12    0.29 
   1  -6   6    0.23    0.29 
   1  -6   6    0.06    0.27 
   1  -6   6    0.16    0.29 
   1  -6   7    3.54    0.36 
   1  -6   7    2.97    0.33 
   1  -6   7    3.49    0.50 
   1  -6   7    2.86    0.30 
   1  -6   7    3.27    0.34 
   1  -6   7    3.96    0.50 
   1  -6   7    3.55    0.46 
   1  -6   8    2.38    0.24 
   1  -6   8    2.41    0.29 
   1  -6   9    5.60    0.31 
   1  -5  -9    0.26    0.31 
   1  -5  -9   -0.17    0.35 
   1  -5  -9    0.04    0.35 
   1  -5  -9    0.08    0.36 
   1  -5  -9   -0.11    0.35 
   1  -5  -8    8.08    0.73 
   1  -5  -8   11.34    0.62 
   1  -5  -8    8.69    0.78 
   1  -5  -8   12.81    0.67 
   1  -5  -8    9.51    0.73 
   1  -5  -7    2.29    0.44 
   1  -5  -7    1.23    0.79 
   1  -5  -7    2.71    0.48 
   1  -5  -7    2.40    0.58 
   1  -5  -6   19.27    1.33 
   1  -5  -6   27.62    1.27 
   1  -5  -6   23.00    1.11 
   1  -5  -6   23.38    0.97 
   1  -5  -6   17.42    1.32 
   1  -5  -6   26.79    1.21 
   1  -5  -6   28.33    0.88 
   1  -5  -5   18.01    1.04 
   1  -5  -5   15.40    0.91 
   1  -5  -5   18.28    0.96 
   1  -5  -5   16.94    0.73 
   1  -5  -4    1.04    0.65 
   1  -5  -4    1.47    0.63 
   1  -5  -4    1.25    0.41 
   1  -5  -3    5.57    0.47 
   1  -5  -3    5.48    0.52 
   1  -5  -3    5.23    0.40 
   1  -5  -3    5.47    0.42 
   1  -5  -2   38.05    1.12 
   1  -5  -2   40.13    1.11 
   1  -5  -2   38.18    1.07 
   1  -5  -1    0.16    0.65 
   1  -5  -1    0.14    0.68 
   1  -5  -1    2.22    0.35 
   1  -5  -1    2.27    0.35 
   1  -5   0   47.24    1.16 
   1  -5   0   50.21    1.19 
   1  -5   0   48.72    1.18 
   1  -5   0   48.93    1.09 
   1  -5   1   57.94    1.32 
   1  -5   1   58.84    1.07 
   1  -5   1   57.36    1.35 
   1  -5   1   58.27    1.33 
   1  -5   1   69.71    1.86 
   1  -5   1   51.42    1.24 
   1  -5   1   64.18    1.37 
   1  -5   1   57.44    1.35 
   1  -5   2    4.19    0.45 
   1  -5   2    4.54    0.67 
   1  -5   2    0.47    1.01 
   1  -5   2    0.51    0.98 
   1  -5   2    5.10    0.64 
   1  -5   2    4.50    0.66 
   1  -5   2    5.58    0.87 
   1  -5   2    4.76    0.33 
   1  -5   2    4.50    0.45 
   1  -5   2    4.52    0.37 
   1  -5   2    3.90    0.39 
   1  -5   2    4.50    0.41 
   1  -5   3   85.07    1.40 
   1  -5   3   90.09    1.78 
   1  -5   3  100.21    2.16 
   1  -5   3   98.05    2.31 
   1  -5   3   96.97    2.33 
   1  -5   3   87.14    1.73 
   1  -5   3  100.89    2.15 
   1  -5   3   90.50    1.45 
   1  -5   3   88.95    1.81 
   1  -5   3   89.21    1.43 
   1  -5   3   79.72    1.72 
   1  -5   3   95.57    1.99 
   1  -5   3   86.50    1.34 
   1  -5   3   87.75    1.65 
   1  -5   3  106.07    2.27 
   1  -5   4   61.46    1.68 
   1  -5   4   54.67    1.12 
   1  -5   4   56.14    1.42 
   1  -5   4   48.17    1.36 
   1  -5   4   61.18    1.61 
   1  -5   4   52.04    1.05 
   1  -5   4   63.39    1.71 
   1  -5   4   60.91    1.66 
   1  -5   4   64.48    1.72 
   1  -5   4   62.83    1.67 
   1  -5   4   53.90    1.40 
   1  -5   4   50.83    1.16 
   1  -5   5    8.76    0.51 
   1  -5   5    9.77    0.52 
   1  -5   5    9.66    0.70 
   1  -5   5    9.45    0.64 
   1  -5   5    9.58    0.48 
   1  -5   5    9.68    0.63 
   1  -5   5   11.84    0.83 
   1  -5   5    9.85    0.73 
   1  -5   5   10.05    0.75 
   1  -5   5   11.68    0.83 
   1  -5   5    9.50    0.62 
   1  -5   5    9.58    0.62 
   1  -5   5   11.21    0.80 
   1  -5   6    0.59    0.30 
   1  -5   6    0.26    0.43 
   1  -5   6    0.50    0.30 
   1  -5   6    0.47    0.32 
   1  -5   6    0.15    0.29 
   1  -5   6    0.67    0.37 
   1  -5   6    0.59    0.29 
   1  -5   6    0.61    0.29 
   1  -5   6    0.42    0.29 
   1  -5   6    0.27    0.26 
   1  -5   6    0.01    0.37 
   1  -5   6    0.11    0.41 
   1  -5   6    0.50    0.45 
   1  -5   6    0.58    0.41 
   1  -5   6    0.35    0.44 
   1  -5   6    0.18    0.33 
   1  -5   6    0.11    0.38 
   1  -5   6    0.69    0.35 
   1  -5   7    7.12    0.60 
   1  -5   7    7.39    0.42 
   1  -5   7    7.02    0.41 
   1  -5   7    7.37    0.45 
   1  -5   7    7.37    0.46 
   1  -5   7    7.28    0.58 
   1  -5   7    8.03    0.65 
   1  -5   7    8.20    0.65 
   1  -5   7    7.31    0.59 
   1  -5   7    7.47    0.65 
   1  -5   7    6.44    0.40 
   1  -5   7    8.38    0.47 
   1  -5   8   13.18    0.71 
   1  -5   8   13.55    0.52 
   1  -5   8   13.97    0.58 
   1  -5   8   14.17    0.59 
   1  -5   8   13.08    0.74 
   1  -5   8   12.81    0.70 
   1  -5   8   12.83    0.48 
   1  -5   8   14.33    0.76 
   1  -5   8   13.41    0.79 
   1  -5   9   38.59    0.74 
   1  -5   9   36.34    0.89 
   1  -5   9   38.06    0.87 
   1  -5  10    8.99    0.32 
   1  -5  10    6.42    0.37 
   1  -4 -10    5.81    0.52 
   1  -4 -10    6.57    0.46 
   1  -4 -10    6.83    0.50 
   1  -4 -10    4.93    0.50 
   1  -4  -9    6.31    0.56 
   1  -4  -9    4.77    0.55 
   1  -4  -9    4.39    0.55 
   1  -4  -9    7.20    0.55 
   1  -4  -9    4.70    0.63 
   1  -4  -8   28.42    0.93 
   1  -4  -8   25.10    1.21 
   1  -4  -8   33.49    1.64 
   1  -4  -8   29.95    0.94 
   1  -4  -8   24.40    1.16 
   1  -4  -8   21.55    1.52 
   1  -4  -7  279.26    3.61 
   1  -4  -7  277.94    4.11 
   1  -4  -7  281.11    4.99 
   1  -4  -7  272.48    4.23 
   1  -4  -6    6.39    0.52 
   1  -4  -6    7.28    0.92 
   1  -4  -6    6.58    0.99 
   1  -4  -6    5.98    0.67 
   1  -4  -6    6.60    0.68 
   1  -4  -6    6.26    0.63 
   1  -4  -5   79.68    1.76 
   1  -4  -5   77.47    1.42 
   1  -4  -5   80.26    1.92 
   1  -4  -5   82.80    1.76 
   1  -4  -4    8.94    0.83 
   1  -4  -4   10.08    0.58 
   1  -4  -3    1.64    0.30 
   1  -4  -3    1.29    0.52 
   1  -4  -3    1.88    0.56 
   1  -4  -2  184.87    2.44 
   1  -4  -2  182.42    2.43 
   1  -4  -2  189.90    2.80 
   1  -4  -1  129.77    1.88 
   1  -4  -1  128.95    1.68 
   1  -4  -1  128.46    1.88 
   1  -4   0   41.58    1.93 
   1  -4   0   44.59    2.05 
   1  -4   1  184.82    2.29 
   1  -4   1  187.43    2.31 
   1  -4   1  190.86    2.33 
   1  -4   2   96.81    1.66 
   1  -4   2   84.19    1.56 
   1  -4   2   99.96    2.30 
   1  -4   2  105.43    2.39 
   1  -4   2   94.47    1.85 
   1  -4   2  106.87    2.42 
   1  -4   2   96.03    1.73 
   1  -4   2   96.58    1.87 
   1  -4   2   84.68    1.30 
   1  -4   2   87.38    1.58 
   1  -4   3  279.37    3.54 
   1  -4   3  279.07    3.76 
   1  -4   3  262.43    3.52 
   1  -4   3  259.80    3.08 
   1  -4   3  337.84    4.20 
   1  -4   3  258.88    3.26 
   1  -4   3  332.01    4.18 
   1  -4   3  306.30    3.90 
   1  -4   3  336.02    4.20 
   1  -4   3  270.11    3.33 
   1  -4   3  311.06    3.92 
   1  -4   3  269.37    3.12 
   1  -4   3  273.34    3.47 
   1  -4   4    2.63    0.45 
   1  -4   4    1.99    0.33 
   1  -4   4    2.10    0.28 
   1  -4   4    2.47    0.48 
   1  -4   4    2.11    0.32 
   1  -4   4    2.71    0.50 
   1  -4   4    2.68    0.51 
   1  -4   4    2.74    0.50 
   1  -4   4    3.26    0.51 
   1  -4   4    2.46    0.29 
   1  -4   4    2.31    0.33 
   1  -4   5  154.59    2.51 
   1  -4   5  133.44    2.50 
   1  -4   5  140.73    1.97 
   1  -4   5  130.69    1.83 
   1  -4   5  136.89    2.32 
   1  -4   5  138.82    2.29 
   1  -4   5  158.72    2.66 
   1  -4   5  138.39    2.34 
   1  -4   5  158.43    2.65 
   1  -4   5  136.03    2.26 
   1  -4   5  140.12    2.46 
   1  -4   5  134.54    2.31 
   1  -4   5  140.94    2.38 
   1  -4   6   25.27    0.96 
   1  -4   6   26.42    1.04 
   1  -4   6   26.80    0.98 
   1  -4   6   25.37    0.95 
   1  -4   6   25.59    0.73 
   1  -4   6   25.93    0.77 
   1  -4   6   24.94    0.71 
   1  -4   6   25.34    0.73 
   1  -4   6   28.89    1.12 
   1  -4   6   26.10    0.96 
   1  -4   6   29.06    1.12 
   1  -4   6   25.64    1.06 
   1  -4   6   22.80    0.97 
   1  -4   6   28.99    1.00 
   1  -4   6   25.63    0.97 
   1  -4   6   26.36    0.98 
   1  -4   7   18.65    0.89 
   1  -4   7   12.31    0.84 
   1  -4   7   21.27    0.98 
   1  -4   7   21.83    0.99 
   1  -4   7   19.29    0.69 
   1  -4   7   18.76    0.85 
   1  -4   7   17.70    0.62 
   1  -4   7   19.09    0.68 
   1  -4   7   18.89    0.66 
   1  -4   7   17.87    0.60 
   1  -4   7   19.59    0.66 
   1  -4   7   14.83    0.82 
   1  -4   7   19.94    0.90 
   1  -4   7   16.06    0.86 
   1  -4   8    0.61    0.26 
   1  -4   8    0.11    0.26 
   1  -4   8    0.35    0.33 
   1  -4   8    0.68    0.27 
   1  -4   8    0.37    0.28 
   1  -4   8    0.28    0.28 
   1  -4   8    0.66    0.40 
   1  -4   8    0.49    0.40 
   1  -4   8    0.59    0.41 
   1  -4   8    0.70    0.38 
   1  -4   8    0.65    0.38 
   1  -4   8    0.23    0.38 
   1  -4   9  262.48    3.09 
   1  -4   9  277.14    3.26 
   1  -4   9  268.47    3.85 
   1  -4   9  276.94    3.22 
   1  -4   9  272.33    3.07 
   1  -4   9  281.81    3.22 
   1  -4   9  272.81    3.89 
   1  -4   9  278.29    3.79 
   1  -4  10   30.50    0.76 
   1  -4  10   32.42    0.69 
   1  -3 -11   -0.09    0.31 
   1  -3 -11    0.22    0.31 
   1  -3 -10    2.25    0.45 
   1  -3  -9    1.98    0.58 
   1  -3  -9    1.76    0.69 
   1  -3  -9    1.89    0.45 
   1  -3  -9    1.89    0.46 
   1  -3  -8  196.99    2.80 
   1  -3  -8  210.45    3.74 
   1  -3  -8  194.72    3.44 
   1  -3  -8  216.80    2.84 
   1  -3  -7  256.35    3.12 
   1  -3  -7  243.40    3.70 
   1  -3  -7  260.66    3.10 
   1  -3  -7  251.68    3.58 
   1  -3  -7  216.52    3.49 
   1  -3  -7  220.52    3.52 
   1  -3  -6   95.66    1.88 
   1  -3  -6   95.59    1.97 
   1  -3  -6   89.81    1.74 
   1  -3  -6  100.01    1.58 
   1  -3  -6   82.40    1.78 
   1  -3  -6   93.34    2.40 
   1  -3  -6   85.23    1.80 
   1  -3  -5   29.87    1.01 
   1  -3  -5   29.19    0.89 
   1  -3  -5   28.08    0.93 
   1  -3  -5   24.49    0.87 
   1  -3  -5   27.70    1.21 
   1  -3  -5   24.23    0.87 
   1  -3  -4    3.11    0.57 
   1  -3  -4    3.35    0.38 
   1  -3  -4    3.51    0.38 
   1  -3  -3  114.75    1.67 
   1  -3  -3  117.04    1.68 
   1  -3  -3  117.16    1.70 
   1  -3  -2  159.55    2.31 
   1  -3  -2  167.79    2.10 
   1  -3  -1  626.92    6.40 
   1  -3  -1  629.48    6.03 
   1  -3   0  201.49    2.51 
   1  -3   0  206.73    2.41 
   1  -3   1    1.43    0.54 
   1  -3   1    1.13    0.50 
   1  -3   1    0.17    0.30 
   1  -3   1   37.47    0.78 
   1  -3   1   36.95    0.73 
   1  -3   2  166.29    2.17 
   1  -3   2  169.31    2.18 
   1  -3   2  126.66    2.63 
   1  -3   2  127.78    2.68 
   1  -3   2  189.20    2.26 
   1  -3   2  135.48    2.55 
   1  -3   2  157.24    2.03 
   1  -3   3    1.17    0.28 
   1  -3   3    1.66    0.26 
   1  -3   3    1.80    0.31 
   1  -3   3    2.27    0.52 
   1  -3   3    2.05    0.51 
   1  -3   3    1.82    0.50 
   1  -3   3    1.68    0.38 
   1  -3   3    1.55    0.28 
   1  -3   4  207.53    2.91 
   1  -3   4  213.23    2.59 
   1  -3   4  228.67    2.93 
   1  -3   4  226.23    2.93 
   1  -3   4  223.88    2.93 
   1  -3   4  219.98    2.86 
   1  -3   4  222.74    3.01 
   1  -3   5    5.93    0.49 
   1  -3   5    4.45    0.45 
   1  -3   5    5.42    0.46 
   1  -3   5    4.94    0.44 
   1  -3   5    4.74    0.44 
   1  -3   5    5.16    0.35 
   1  -3   5    4.29    0.34 
   1  -3   5    5.34    0.44 
   1  -3   5    4.89    0.45 
   1  -3   5    4.52    0.44 
   1  -3   5    4.89    0.38 
   1  -3   5    4.78    0.43 
   1  -3   5    4.78    0.47 
   1  -3   6    9.93    0.59 
   1  -3   6    7.95    0.64 
   1  -3   6   11.03    0.69 
   1  -3   6   10.23    0.57 
   1  -3   6   11.59    0.70 
   1  -3   6    9.89    0.49 
   1  -3   6   10.56    0.64 
   1  -3   6    7.39    0.60 
   1  -3   6   11.46    0.65 
   1  -3   6   10.50    0.58 
   1  -3   6   10.18    0.60 
   1  -3   6    9.23    0.47 
   1  -3   6    9.82    0.47 
   1  -3   6   10.27    0.45 
   1  -3   6   11.06    0.67 
   1  -3   6    9.85    0.55 
   1  -3   6   10.22    0.62 
   1  -3   6   10.08    0.62 
   1  -3   7    9.68    0.60 
   1  -3   7    6.96    0.66 
   1  -3   7   10.92    0.71 
   1  -3   7   11.27    0.73 
   1  -3   7    9.84    0.49 
   1  -3   7    9.73    0.62 
   1  -3   7    8.58    0.61 
   1  -3   7   10.05    0.64 
   1  -3   7    9.68    0.60 
   1  -3   7    9.26    0.50 
   1  -3   7    8.86    0.44 
   1  -3   7   10.13    0.49 
   1  -3   7    9.34    0.68 
   1  -3   7    9.29    0.59 
   1  -3   7    8.75    0.65 
   1  -3   7    9.73    0.65 
   1  -3   8   13.44    0.58 
   1  -3   8   13.13    0.62 
   1  -3   8   13.03    0.53 
   1  -3   8   12.46    0.55 
   1  -3   8   10.53    0.67 
   1  -3   8   11.99    0.66 
   1  -3   8   13.35    0.60 
   1  -3   8   14.37    0.83 
   1  -3   8   13.15    0.81 
   1  -3   8   13.07    0.78 
   1  -3   8   12.49    0.66 
   1  -3   8   12.99    0.72 
   1  -3   8   13.00    0.78 
   1  -3   8   13.45    0.78 
   1  -3   9  167.52    2.34 
   1  -3   9  168.32    2.17 
   1  -3   9  168.67    2.23 
   1  -3   9  169.64    2.22 
   1  -3   9  163.40    2.84 
   1  -3   9  168.69    2.91 
   1  -3   9  166.69    2.90 
   1  -3   9  167.56    2.34 
   1  -3   9  161.69    2.85 
   1  -3   9  167.39    2.77 
   1  -3   9  163.13    2.19 
   1  -3  10    0.56    0.26 
   1  -3  10    0.52    0.28 
   1  -3  10    0.80    0.26 
   1  -3  10    0.68    0.36 
   1  -3  10    0.56    0.26 
   1  -3  10    0.70    0.31 
   1  -3  10    0.59    0.36 
   1  -3  11   12.72    0.46 
   1  -3  11   11.84    0.49 
   1  -3  12    4.59    0.19 
   1  -2 -11   -0.20    0.35 
   1  -2 -11   -0.16    0.37 
   1  -2 -11    0.01    0.28 
   1  -2 -11   -0.52    0.38 
   1  -2 -11   -0.04    0.34 
   1  -2 -10   30.38    0.96 
   1  -2 -10   30.22    0.94 
   1  -2 -10   27.22    0.86 
   1  -2 -10   28.28    1.25 
   1  -2 -10   29.74    0.96 
   1  -2  -9   52.19    1.15 
   1  -2  -9   56.18    1.35 
   1  -2  -9   59.18    1.38 
   1  -2  -9   52.62    1.71 
   1  -2  -9   51.00    1.70 
   1  -2  -9   54.62    1.69 
   1  -2  -9   49.21    1.55 
   1  -2  -9   58.02    1.37 
   1  -2  -9   52.69    1.30 
   1  -2  -9   59.87    2.21 
   1  -2  -8   22.21    0.83 
   1  -2  -8   20.13    1.06 
   1  -2  -8   23.83    1.47 
   1  -2  -8   21.06    1.07 
   1  -2  -8   23.13    1.08 
   1  -2  -8   21.32    1.19 
   1  -2  -8   20.64    1.17 
   1  -2  -8   22.68    1.09 
   1  -2  -8   22.32    0.77 
   1  -2  -8   22.51    1.05 
   1  -2  -7  178.90    2.86 
   1  -2  -7  166.68    3.11 
   1  -2  -7  168.85    2.90 
   1  -2  -7  167.62    3.15 
   1  -2  -7  174.85    2.30 
   1  -2  -7  177.35    2.29 
   1  -2  -7  162.13    2.92 
   1  -2  -7  164.16    2.93 
   1  -2  -7  172.40    2.65 
   1  -2  -6    0.31    0.48 
   1  -2  -6    0.52    0.53 
   1  -2  -6    0.12    0.24 
   1  -2  -6    0.11    0.32 
   1  -2  -6    0.13    0.34 
   1  -2  -6    0.09    0.36 
   1  -2  -6    0.85    0.50 
   1  -2  -5    0.87    0.32 
   1  -2  -5    1.44    0.56 
   1  -2  -5    1.30    0.27 
   1  -2  -5    0.96    0.31 
   1  -2  -5    1.05    0.36 
   1  -2  -5    1.05    0.49 
   1  -2  -5    1.36    0.37 
   1  -2  -4    0.06    0.21 
   1  -2  -4    0.09    0.26 
   1  -2  -4    0.07    0.28 
   1  -2  -4   -0.01    0.30 
   1  -2  -4    0.37    0.44 
   1  -2  -3    8.24    0.55 
   1  -2  -3    8.27    0.44 
   1  -2  -3    6.73    0.45 
   1  -2  -2  289.22    2.73 
   1  -2  -2  283.54    2.73 
   1  -2  -1   97.02    1.10 
   1  -2   0  169.89    1.89 
   1  -2   0  182.59    1.99 
   1  -2   1  214.67    2.02 
   1  -2   1  238.85    2.26 
   1  -2   1   98.74    2.34 
   1  -2   1  102.44    2.42 
   1  -2   2  123.85    2.09 
   1  -2   2  119.36    2.02 
   1  -2   2  130.15    1.55 
   1  -2   2  117.19    1.94 
   1  -2   2  138.32    1.72 
   1  -2   2  129.10    1.66 
   1  -2   2  131.22    1.78 
   1  -2   3    1.18    0.29 
   1  -2   3    1.46    0.34 
   1  -2   3    1.44    0.38 
   1  -2   3    1.43    0.38 
   1  -2   3    1.36    0.31 
   1  -2   3    1.26    0.39 
   1  -2   3    1.24    0.34 
   1  -2   4  303.97    3.25 
   1  -2   4  309.49    3.30 
   1  -2   4  312.38    3.62 
   1  -2   4  291.57    3.51 
   1  -2   4  287.28    3.36 
   1  -2   4  289.26    3.37 
   1  -2   4  347.04    3.82 
   1  -2   4  291.47    3.60 
   1  -2   4  324.60    3.72 
   1  -2   5   14.53    0.63 
   1  -2   5   13.87    0.56 
   1  -2   5   15.47    0.54 
   1  -2   5   14.99    0.64 
   1  -2   5   14.24    0.67 
   1  -2   5   14.31    0.63 
   1  -2   5   14.85    0.58 
   1  -2   5   16.45    0.68 
   1  -2   5   15.57    0.70 
   1  -2   5   15.47    0.68 
   1  -2   5   14.02    0.65 
   1  -2   5   15.72    0.69 
   1  -2   6    3.44    0.37 
   1  -2   6    3.69    0.36 
   1  -2   6    3.31    0.32 
   1  -2   6    3.60    0.38 
   1  -2   6    3.52    0.43 
   1  -2   6    3.58    0.35 
   1  -2   6    4.38    0.41 
   1  -2   6    2.19    0.36 
   1  -2   6    3.73    0.44 
   1  -2   6    3.73    0.40 
   1  -2   6    3.77    0.40 
   1  -2   6    3.78    0.41 
   1  -2   6    3.58    0.40 
   1  -2   7    6.19    0.38 
   1  -2   7    6.32    0.43 
   1  -2   7    6.26    0.56 
   1  -2   7    7.01    0.52 
   1  -2   7    5.07    0.47 
   1  -2   7    7.00    0.53 
   1  -2   7    5.95    0.46 
   1  -2   7    4.52    0.57 
   1  -2   7    5.53    0.38 
   1  -2   7    6.39    0.40 
   1  -2   7    6.42    0.54 
   1  -2   7    4.66    0.55 
   1  -2   7    6.13    0.53 
   1  -2   8    2.15    0.35 
   1  -2   8    2.41    0.39 
   1  -2   8    2.43    0.32 
   1  -2   8    2.04    0.35 
   1  -2   8    2.70    0.36 
   1  -2   8    2.66    0.40 
   1  -2   8    2.54    0.35 
   1  -2   8    2.44    0.36 
   1  -2   8    3.08    0.46 
   1  -2   8    2.10    0.44 
   1  -2   8    2.27    0.45 
   1  -2   8    1.55    0.45 
   1  -2   8    2.88    0.31 
   1  -2   8    2.36    0.36 
   1  -2   9    1.95    0.35 
   1  -2   9    2.06    0.37 
   1  -2   9    2.66    0.34 
   1  -2   9    2.81    0.45 
   1  -2   9    1.99    0.45 
   1  -2   9    2.03    0.33 
   1  -2   9    2.15    0.35 
   1  -2   9    2.33    0.28 
   1  -2  10   14.71    0.59 
   1  -2  10   13.72    0.61 
   1  -2  10   14.38    0.79 
   1  -2  10   16.90    0.57 
   1  -2  10   17.00    0.62 
   1  -2  10   16.38    0.55 
   1  -2  11   16.79    0.80 
   1  -2  11   18.14    0.55 
   1  -2  12    2.61    0.21 
   1  -1 -12    0.86    0.23 
   1  -1 -11    2.26    0.40 
   1  -1 -11    1.75    0.41 
   1  -1 -11    2.02    1.22 
   1  -1 -11    1.77    0.38 
   1  -1 -11    0.95    1.20 
   1  -1 -11    2.18    0.42 
   1  -1 -10   22.32    1.36 
   1  -1 -10   18.66    1.34 
   1  -1 -10   32.77    0.96 
   1  -1 -10   35.01    1.03 
   1  -1 -10   35.72    1.04 
   1  -1 -10   32.08    1.03 
   1  -1 -10   33.26    1.39 
   1  -1 -10   32.51    1.38 
   1  -1 -10   27.90    1.18 
   1  -1 -10   32.51    1.34 
   1  -1 -10   33.95    1.31 
   1  -1  -9    6.74    0.74 
   1  -1  -9    7.59    0.59 
   1  -1  -9    7.40    0.61 
   1  -1  -9    7.48    0.61 
   1  -1  -9    6.15    0.73 
   1  -1  -9    6.41    0.93 
   1  -1  -9    5.86    0.72 
   1  -1  -9    5.56    0.68 
   1  -1  -9    7.23    0.83 
   1  -1  -9    6.51    0.88 
   1  -1  -9    6.73    0.86 
   1  -1  -9    6.85    0.71 
   1  -1  -8    1.55    0.58 
   1  -1  -8    2.39    0.44 
   1  -1  -8    2.51    0.45 
   1  -1  -8    2.39    0.46 
   1  -1  -8    1.73    0.54 
   1  -1  -8    2.39    0.76 
   1  -1  -8    1.48    0.56 
   1  -1  -8    2.43    0.53 
   1  -1  -8    2.86    0.77 
   1  -1  -8    2.81    0.74 
   1  -1  -8    2.70    0.71 
   1  -1  -7    4.90    0.53 
   1  -1  -7    4.29    0.68 
   1  -1  -7    4.35    0.72 
   1  -1  -7    4.91    0.80 
   1  -1  -7    5.48    0.77 
   1  -1  -7    4.66    0.44 
   1  -1  -7    4.63    0.59 
   1  -1  -7    5.02    0.73 
   1  -1  -7    4.43    0.57 
   1  -1  -7    2.89    0.55 
   1  -1  -6    5.47    0.57 
   1  -1  -6    6.63    0.67 
   1  -1  -6    4.70    0.55 
   1  -1  -6    5.67    0.68 
   1  -1  -6    6.36    0.49 
   1  -1  -6    6.46    0.70 
   1  -1  -6    6.01    0.72 
   1  -1  -5  199.53    2.96 
   1  -1  -5  198.01    2.99 
   1  -1  -5  202.46    2.98 
   1  -1  -5  199.05    2.98 
   1  -1  -4   28.26    0.73 
   1  -1  -4   25.68    0.79 
   1  -1  -4   25.19    0.79 
   1  -1  -4   22.17    0.75 
   1  -1  -4   25.11    0.79 
   1  -1  -3    3.41    0.27 
   1  -1  -3    5.03    0.33 
   1  -1  -3    4.69    0.33 
   1  -1  -3    2.97    0.29 
   1  -1  -2  232.92    2.47 
   1  -1  -2  233.16    2.46 
   1  -1  -1  802.98    7.29 
   1  -1  -1  788.07    7.28 
   1  -1   0    0.44    0.11 
   1  -1   1 2253.18   20.40 
   1  -1   2  229.75    2.38 
   1  -1   2  235.61    2.39 
   1  -1   2  198.32    2.41 
   1  -1   2  193.68    2.44 
   1  -1   3  245.87    2.61 
   1  -1   3  235.65    2.71 
   1  -1   3  209.73    2.45 
   1  -1   3  235.19    2.71 
   1  -1   3  253.27    2.77 
   1  -1   3  239.27    2.79 
   1  -1   3  221.07    2.57 
   1  -1   3  255.45    2.91 
   1  -1   3  229.85    2.74 
   1  -1   4   90.35    1.36 
   1  -1   4   84.51    1.42 
   1  -1   4   85.18    1.48 
   1  -1   4   77.08    1.27 
   1  -1   4   86.53    1.42 
   1  -1   4   84.44    1.42 
   1  -1   4   87.39    1.54 
   1  -1   4   85.43    1.49 
   1  -1   4   86.49    1.49 
   1  -1   4   94.86    1.51 
   1  -1   4   89.94    1.49 
   1  -1   5  155.11    2.32 
   1  -1   5  164.31    2.31 
   1  -1   5  158.99    2.25 
   1  -1   5  171.27    2.33 
   1  -1   5  152.21    1.97 
   1  -1   5  150.20    1.98 
   1  -1   5  152.37    1.98 
   1  -1   5  154.22    2.21 
   1  -1   5  149.55    2.29 
   1  -1   5  144.65    2.06 
   1  -1   5  154.71    2.23 
   1  -1   5  150.62    1.96 
   1  -1   5  153.82    2.22 
   1  -1   5  151.72    2.11 
   1  -1   6  114.74    1.86 
   1  -1   6  122.09    2.00 
   1  -1   6  108.08    1.91 
   1  -1   6  125.75    2.02 
   1  -1   6  112.51    1.66 
   1  -1   6  114.45    1.68 
   1  -1   6  104.57    1.69 
   1  -1   6  112.88    1.79 
   1  -1   6  113.72    1.81 
   1  -1   6  115.73    1.96 
   1  -1   6  112.75    1.95 
   1  -1   6  112.38    1.55 
   1  -1   6  116.31    1.93 
   1  -1   6  114.19    1.85 
   1  -1   7  170.69    2.21 
   1  -1   7  185.48    2.70 
   1  -1   7  171.50    2.54 
   1  -1   7  184.71    2.74 
   1  -1   7  178.83    2.32 
   1  -1   7  170.87    2.32 
   1  -1   7  172.30    2.52 
   1  -1   7  169.43    2.73 
   1  -1   7  174.25    2.74 
   1  -1   7  171.21    2.66 
   1  -1   7  184.34    2.66 
   1  -1   7  160.28    2.22 
   1  -1   7  170.95    2.20 
   1  -1   8   53.77    1.10 
   1  -1   8   49.78    1.33 
   1  -1   8   55.70    1.47 
   1  -1   8   55.42    1.46 
   1  -1   8   54.88    1.36 
   1  -1   8   55.94    1.58 
   1  -1   8   54.47    1.41 
   1  -1   8   47.61    1.22 
   1  -1   8   54.53    1.13 
   1  -1   8   51.46    1.10 
   1  -1   8   52.43    1.40 
   1  -1   8   59.12    1.44 
   1  -1   9   15.83    0.63 
   1  -1   9   13.99    0.61 
   1  -1   9   14.26    0.86 
   1  -1   9   14.69    0.75 
   1  -1   9   14.62    0.60 
   1  -1   9   15.55    0.82 
   1  -1   9   15.63    0.83 
   1  -1   9   15.99    0.61 
   1  -1   9   14.91    0.81 
   1  -1   9   14.42    0.85 
   1  -1  10  104.78    1.57 
   1  -1  10   97.08    2.10 
   1  -1  10  101.48    1.59 
   1  -1  10  104.37    1.62 
   1  -1  10   99.98    2.06 
   1  -1  10   98.83    2.14 
   1  -1  10   98.76    1.59 
   1  -1  11    0.54    0.24 
   1  -1  11    0.45    0.30 
   1  -1  11    0.55    0.27 
   1  -1  11    0.36    0.29 
   1  -1  11    0.54    0.31 
   1  -1  12    1.41    0.21 
   1   0 -12   -0.15    0.32 
   1   0 -11    8.68    0.55 
   1   0 -11    7.49    0.97 
   1   0 -11    7.26    1.00 
   1   0 -11    9.57    0.49 
   1   0 -11    9.31    0.56 
   1   0 -10    8.72    0.57 
   1   0 -10    8.76    0.79 
   1   0 -10    4.04    1.43 
   1   0 -10    8.26    0.58 
   1   0 -10    3.48    1.45 
   1   0 -10    8.16    0.61 
   1   0 -10    8.40    0.62 
   1   0 -10    7.88    0.87 
   1   0 -10    8.88    0.87 
   1   0 -10    7.60    0.78 
   1   0 -10    8.96    0.62 
   1   0  -9    2.90    0.61 
   1   0  -9    3.31    0.67 
   1   0  -9    3.47    0.71 
   1   0  -9    3.12    0.48 
   1   0  -9    3.69    0.53 
   1   0  -9    3.52    0.51 
   1   0  -9    3.57    0.79 
   1   0  -9    3.74    0.76 
   1   0  -9    3.24    0.64 
   1   0  -9    4.20    0.54 
   1   0  -9    4.29    0.54 
   1   0  -9    3.49    0.64 
   1   0  -9    3.21    0.72 
   1   0  -9    3.15    0.77 
   1   0  -9    3.67    0.64 
   1   0  -8   32.26    1.36 
   1   0  -8   31.24    1.41 
   1   0  -8   30.78    1.19 
   1   0  -8   31.39    1.22 
   1   0  -8   30.36    0.91 
   1   0  -8   31.11    0.97 
   1   0  -8   30.53    0.97 
   1   0  -8   27.72    0.92 
   1   0  -8   31.76    1.36 
   1   0  -8   28.61    1.31 
   1   0  -8   28.20    1.31 
   1   0  -8   32.80    1.45 
   1   0  -8   32.06    1.46 
   1   0  -8   31.50    1.22 
   1   0  -7  114.96    1.79 
   1   0  -7  118.74    1.85 
   1   0  -7  118.66    1.84 
   1   0  -7  119.38    2.23 
   1   0  -7  113.33    2.47 
   1   0  -7  122.40    2.48 
   1   0  -7  115.85    2.52 
   1   0  -7  115.80    2.54 
   1   0  -7  116.40    2.39 
   1   0  -7  108.03    2.41 
   1   0  -7  109.40    2.42 
   1   0  -6    6.84    0.42 
   1   0  -6    6.89    0.66 
   1   0  -6    6.61    0.67 
   1   0  -6    7.39    0.56 
   1   0  -6    7.60    0.63 
   1   0  -6    6.54    0.62 
   1   0  -6    6.16    0.60 
   1   0  -6    7.43    0.56 
   1   0  -6    7.73    0.55 
   1   0  -6    6.47    0.68 
   1   0  -6    8.63    0.74 
   1   0  -5   18.59    0.81 
   1   0  -5   20.30    0.72 
   1   0  -5   18.36    0.82 
   1   0  -5   19.27    0.82 
   1   0  -5   21.28    0.72 
   1   0  -5   19.64    0.72 
   1   0  -5   19.81    3.18 
   1   0  -5   19.18    3.99 
   1   0  -4  166.14    2.38 
   1   0  -4  167.16    2.36 
   1   0  -4  169.42    2.20 
   1   0  -4  170.11    2.12 
   1   0  -3   55.30    1.02 
   1   0  -3   54.56    1.01 
   1   0  -3   45.43    0.58 
   1   0  -3   49.86    0.83 
   1   0  -3   50.54    0.82 
   1   0  -3   55.94    0.87 
   1   0  -2  346.04    3.30 
   1   0  -2  380.94    3.52 
   1   0  -1  587.17    5.39 
   1   0   1  180.05    1.87 
   1   0   1  181.94    1.88 
   1   0   1  166.48    1.80 
   1   0   1  166.22    1.80 
   1   0   1  189.46    1.96 
   1   0   2  349.32    3.78 
   1   0   2  357.69    3.62 
   1   0   2  361.81    3.62 
   1   0   3   16.12    0.54 
   1   0   3   16.28    0.48 
   1   0   3   16.21    0.48 
   1   0   3   17.46    0.51 
   1   0   3   18.37    0.59 
   1   0   3   18.70    0.64 
   1   0   4    4.09    0.36 
   1   0   4    3.37    0.39 
   1   0   4    3.37    0.31 
   1   0   4    3.51    0.31 
   1   0   4    4.04    0.31 
   1   0   4    3.57    0.41 
   1   0   4    3.52    0.28 
   1   0   4    4.14    0.40 
   1   0   5    8.89    0.55 
   1   0   5   10.06    0.48 
   1   0   5    9.43    0.50 
   1   0   5    9.19    0.45 
   1   0   5    8.82    0.48 
   1   0   5    9.11    0.48 
   1   0   5    8.82    0.53 
   1   0   5    9.54    0.59 
   1   0   5    8.97    0.52 
   1   0   5    8.98    0.55 
   1   0   5    9.19    0.44 
   1   0   6   75.83    1.55 
   1   0   6   82.17    1.65 
   1   0   6   82.23    1.47 
   1   0   6   73.87    1.20 
   1   0   6   74.25    1.20 
   1   0   6   85.57    1.71 
   1   0   6   80.12    1.53 
   1   0   6   79.95    1.45 
   1   0   6   78.37    1.54 
   1   0   6   73.98    1.25 
   1   0   6   74.82    1.25 
   1   0   6  225.82    3.68 
   1   0   6  244.11    3.59 
   1   0   6   83.53    1.66 
   1   0   6   76.31    1.49 
   1   0   6   74.62    1.47 
   1   0   6   73.81    1.51 
   1   0   7    4.10    0.48 
   1   0   7    3.95    0.46 
   1   0   7    4.72    0.45 
   1   0   7    3.75    0.39 
   1   0   7    4.16    0.40 
   1   0   7    4.31    0.40 
   1   0   7    4.41    0.36 
   1   0   7    4.22    0.40 
   1   0   7    5.10    0.53 
   1   0   7    4.19    0.43 
   1   0   7    4.25    0.34 
   1   0   7    3.94    0.38 
   1   0   7    3.96    0.43 
   1   0   7    4.65    0.45 
   1   0   7    3.82    0.50 
   1   0   7    3.67    0.49 
   1   0   7    4.35    0.49 
   1   0   7    3.96    0.50 
   1   0   8    1.60    0.34 
   1   0   8    1.13    0.37 
   1   0   8    1.80    0.44 
   1   0   8    1.49    0.34 
   1   0   8    1.15    0.29 
   1   0   8    1.73    0.28 
   1   0   8    1.73    0.33 
   1   0   8    1.80    0.39 
   1   0   8    1.51    0.39 
   1   0   8    2.07    0.53 
   1   0   8    1.35    0.47 
   1   0   8    1.24    0.40 
   1   0   8    1.21    0.42 
   1   0   8    1.79    0.41 
   1   0   8    1.34    0.32 
   1   0   9   14.39    0.63 
   1   0   9   13.63    0.58 
   1   0   9   11.78    0.80 
   1   0   9   13.17    0.78 
   1   0   9   13.96    0.80 
   1   0   9   13.65    0.75 
   1   0   9   14.34    0.82 
   1   0   9   13.23    0.60 
   1   0   9   12.34    0.53 
   1   0   9   13.86    0.63 
   1   0   9   13.66    0.81 
   1   0   9   13.29    0.79 
   1   0  10    3.40    0.36 
   1   0  10    0.93    0.46 
   1   0  10    0.75    0.35 
   1   0  10    2.90    0.38 
   1   0  10    2.40    0.49 
   1   0  10    3.12    0.47 
   1   0  10    2.72    0.40 
   1   0  11    7.70    0.39 
   1   0  11    7.39    0.53 
   1   0  11    8.47    0.43 
   1   0  11    6.64    0.55 
   1   0  11    6.80    0.52 
   1   0  11    6.71    0.44 
   1   0  11    5.78    0.41 
   1   0  12    0.04    0.18 
   1   1 -12   42.43    0.83 
   1   1 -11    3.10    0.57 
   1   1 -11    2.51    0.39 
   1   1 -11    2.58    0.40 
   1   1 -11    2.40    0.42 
   1   1 -11    1.47    0.40 
   1   1 -11    2.83    0.42 
   1   1 -11    3.17    0.56 
   1   1 -10    1.33    0.48 
   1   1 -10    0.41    0.43 
   1   1 -10    1.31    0.47 
   1   1 -10    1.79    1.35 
   1   1 -10    1.27    0.45 
   1   1 -10    0.72    1.35 
   1   1 -10    0.94    0.44 
   1   1 -10    0.95    0.57 
   1   1 -10    1.16    0.61 
   1   1 -10    1.25    0.62 
   1   1 -10    1.20    0.57 
   1   1  -9   36.91    1.57 
   1   1  -9   35.42    1.54 
   1   1  -9   40.82    1.16 
   1   1  -9   43.13    1.15 
   1   1  -9   23.34    1.46 
   1   1  -9   23.44    1.47 
   1   1  -9   37.40    1.01 
   1   1  -9   40.07    1.12 
   1   1  -9   42.21    1.14 
   1   1  -9   39.70    1.47 
   1   1  -9   37.73    1.44 
   1   1  -9   40.42    1.61 
   1   1  -9   41.23    1.62 
   1   1  -9   38.29    1.43 
   1   1  -9   38.37    1.45 
   1   1  -9   42.03    1.59 
   1   1  -9   40.01    1.61 
   1   1  -8    3.91    0.77 
   1   1  -8    3.43    0.76 
   1   1  -8    3.80    0.63 
   1   1  -8    4.52    0.53 
   1   1  -8    3.46    0.49 
   1   1  -8    4.05    0.52 
   1   1  -8    4.13    0.52 
   1   1  -8    3.97    0.66 
   1   1  -8    3.71    0.62 
   1   1  -8    3.27    0.67 
   1   1  -8    4.03    0.68 
   1   1  -8    3.72    0.74 
   1   1  -8    3.99    0.66 
   1   1  -8    4.23    0.67 
   1   1  -7  146.79    2.79 
   1   1  -7  147.20    2.14 
   1   1  -7  162.81    2.29 
   1   1  -7  165.79    2.29 
   1   1  -7  170.05    2.81 
   1   1  -7  165.48    2.78 
   1   1  -7  158.77    3.00 
   1   1  -7  153.79    2.63 
   1   1  -7  156.00    2.97 
   1   1  -7  162.48    2.94 
   1   1  -7  176.50    3.03 
   1   1  -6   94.34    2.13 
   1   1  -6   97.58    2.11 
   1   1  -6   95.99    1.53 
   1   1  -6   96.36    1.53 
   1   1  -6  100.75    1.93 
   1   1  -6  101.13    1.90 
   1   1  -6  102.87    1.92 
   1   1  -6   89.09    1.94 
   1   1  -6   98.92    2.07 
   1   1  -5   58.56    1.48 
   1   1  -5   58.48    1.44 
   1   1  -5   55.43    1.01 
   1   1  -5   56.67    1.01 
   1   1  -5   58.86    1.29 
   1   1  -5   57.97    1.28 
   1   1  -5   53.44    1.27 
   1   1  -5   59.33    1.39 
   1   1  -4   69.12    1.42 
   1   1  -4   69.21    1.40 
   1   1  -4   67.04    1.26 
   1   1  -4   69.35    1.26 
   1   1  -4   66.46    1.25 
   1   1  -4   67.23    1.26 
   1   1  -3    6.86    0.38 
   1   1  -3    6.62    0.38 
   1   1  -3    6.81    0.38 
   1   1  -3    6.00    0.31 
   1   1  -2  752.37    7.08 
   1   1  -2  733.96    6.86 
   1   1  -2  747.29    7.06 
   1   1  -1   73.08    0.88 
   1   1  -1   78.19    0.93 
   1   1   0  774.70    6.92 
   1   1   0  745.20    6.84 
   1   1   1    7.46    0.23 
   1   1   1    7.20    0.22 
   1   1   1    6.95    0.17 
   1   1   1    6.96    0.17 
   1   1   2   28.05    0.54 
   1   1   2   24.86    0.44 
   1   1   2   25.41    0.45 
   1   1   2   26.96    0.68 
   1   1   2   25.99    0.48 
   1   1   2   25.91    0.48 
   1   1   3   44.42    0.79 
   1   1   3   41.50    0.74 
   1   1   3   40.84    0.73 
   1   1   3   41.72    0.65 
   1   1   3   43.16    0.66 
   1   1   3   38.51    0.88 
   1   1   3   38.66    0.89 
   1   1   3   38.38    0.85 
   1   1   4  125.20    1.91 
   1   1   4  112.90    1.62 
   1   1   4  105.72    1.78 
   1   1   4  108.51    1.57 
   1   1   4  109.09    1.57 
   1   1   4  113.31    1.77 
   1   1   4  122.67    1.48 
   1   1   4  122.89    1.48 
   1   1   4  104.99    1.81 
   1   1   4  104.39    1.68 
   1   1   4  104.07    1.71 
   1   1   5  120.75    1.71 
   1   1   5  121.13    1.61 
   1   1   5  123.52    1.62 
   1   1   5  134.92    1.96 
   1   1   5  118.34    1.83 
   1   1   5  144.33    2.21 
   1   1   5  127.36    1.74 
   1   1   5  125.91    2.05 
   1   1   5  124.00    1.86 
   1   1   5  123.31    1.86 
   1   1   5  130.15    2.02 
   1   1   5  121.41    1.96 
   1   1   5  130.07    2.07 
   1   1   5  124.73    1.94 
   1   1   6    0.01    0.31 
   1   1   6    0.14    0.30 
   1   1   6    0.15    0.29 
   1   1   6    0.21    0.35 
   1   1   6    0.26    0.35 
   1   1   6    0.32    0.24 
   1   1   6    0.27    0.22 
   1   1   6    0.09    0.20 
   1   1   6    0.16    0.27 
   1   1   6    0.01    0.27 
   1   1   6    0.11    0.27 
   1   1   6    0.48    0.38 
   1   1   6    0.21    0.31 
   1   1   6    0.45    0.38 
   1   1   6    0.32    0.32 
   1   1   7   61.06    1.46 
   1   1   7   63.24    1.49 
   1   1   7   61.41    1.48 
   1   1   7   60.22    1.44 
   1   1   7   62.32    1.46 
   1   1   7   60.28    1.19 
   1   1   7   59.42    1.17 
   1   1   7   61.01    1.18 
   1   1   7   60.38    1.40 
   1   1   7   64.60    1.56 
   1   1   7   62.10    1.20 
   1   1   7   59.15    1.11 
   1   1   7   59.45    1.49 
   1   1   7   63.83    1.50 
   1   1   8   22.06    0.98 
   1   1   8   21.58    0.92 
   1   1   8   23.01    1.03 
   1   1   8   22.10    0.94 
   1   1   8   22.73    0.95 
   1   1   8   23.25    0.73 
   1   1   8   22.14    0.80 
   1   1   8   22.35    0.80 
   1   1   8   20.43    0.87 
   1   1   8   22.42    0.95 
   1   1   8   23.40    0.99 
   1   1   8   22.78    0.75 
   1   1   8   22.11    0.76 
   1   1   8   22.56    0.94 
   1   1   8   18.98    0.96 
   1   1   9   34.92    1.08 
   1   1   9   41.46    1.10 
   1   1   9   41.95    1.10 
   1   1   9   38.21    1.20 
   1   1   9   43.05    1.37 
   1   1   9   45.22    1.39 
   1   1   9   46.53    1.07 
   1   1   9   46.10    1.05 
   1   1   9   43.06    1.38 
   1   1   9   44.09    1.31 
   1   1   9   42.00    1.45 
   1   1   9   45.11    1.34 
   1   1  10   38.45    0.90 
   1   1  10   35.27    1.24 
   1   1  10   35.74    1.13 
   1   1  10   39.81    0.92 
   1   1  10   36.28    1.15 
   1   1  10   35.62    0.95 
   1   1  11   15.98    0.54 
   1   1  11   13.57    0.57 
   1   1  11   13.16    0.52 
   1   1  11   16.21    0.53 
   1   1  12    0.79    0.20 
   1   1  12    0.61    0.23 
   1   1  12    0.92    0.19 
   1   2 -12    3.73    0.26 
   1   2 -11   20.25    0.61 
   1   2 -11   20.06    0.61 
   1   2 -11   21.08    0.69 
   1   2 -11   22.51    0.73 
   1   2 -11   23.56    0.78 
   1   2 -11   24.57    0.78 
   1   2 -10   31.01    1.05 
   1   2 -10   37.64    1.02 
   1   2 -10   34.78    0.95 
   1   2 -10   35.12    0.96 
   1   2 -10   32.72    1.29 
   1   2 -10   31.30    1.41 
   1   2 -10   31.49    1.28 
   1   2 -10   34.94    1.34 
   1   2 -10   37.49    1.12 
   1   2  -9   32.59    1.39 
   1   2  -9   33.64    1.42 
   1   2  -9   34.14    1.03 
   1   2  -9   34.26    1.03 
   1   2  -9   34.60    1.51 
   1   2  -9   37.85    1.10 
   1   2  -9   35.08    1.42 
   1   2  -8  113.48    2.63 
   1   2  -8  112.03    2.48 
   1   2  -8  113.20    2.48 
   1   2  -8  108.10    1.89 
   1   2  -8  107.79    1.89 
   1   2  -8  113.78    2.62 
   1   2  -8  113.45    2.49 
   1   2  -8  117.23    2.00 
   1   2  -7   28.18    0.87 
   1   2  -7   30.11    0.96 
   1   2  -7   27.62    1.26 
   1   2  -7   28.18    1.26 
   1   2  -7   29.96    1.23 
   1   2  -7   28.99    0.92 
   1   2  -7   29.74    0.92 
   1   2  -7   23.00    1.24 
   1   2  -7   28.04    1.15 
   1   2  -7   28.20    1.20 
   1   2  -7   31.16    1.31 
   1   2  -7   24.33    0.93 
   1   2  -6   69.09    1.34 
   1   2  -6   64.64    1.49 
   1   2  -6   67.70    1.28 
   1   2  -6   68.46    1.28 
   1   2  -6   69.35    1.70 
   1   2  -6   68.11    1.67 
   1   2  -6   69.19    1.63 
   1   2  -6   69.41    1.68 
   1   2  -6   69.32    1.69 
   1   2  -6   70.65    1.70 
   1   2  -5  119.70    2.09 
   1   2  -5  114.92    1.71 
   1   2  -5  112.23    2.01 
   1   2  -5  113.61    1.99 
   1   2  -5  122.18    2.11 
   1   2  -5  120.72    2.07 
   1   2  -5  118.97    2.10 
   1   2  -4  109.21    1.84 
   1   2  -4  102.12    1.78 
   1   2  -4  105.39    1.79 
   1   2  -4  106.05    1.80 
   1   2  -4  100.23    1.47 
   1   2  -4  104.16    1.78 
   1   2  -3  315.48    3.46 
   1   2  -3  341.51    3.85 
   1   2  -3  333.97    3.80 
   1   2  -3  321.33    3.77 
   1   2  -3  368.87    3.99 
   1   2  -3  328.40    3.83 
   1   2  -3  351.03    3.59 
   1   2  -2  240.43    2.92 
   1   2  -2  245.75    2.88 
   1   2  -1 9825.85   87.87 
   1   2  -1 9859.71   87.94 
   1   2  -1 9879.23   88.05 
   1   2   0    0.40    0.24 
   1   2   1  816.48    7.61 
   1   2   1  770.40    7.50 
   1   2   1  825.81    7.59 
   1   2   1  825.03    7.83 
   1   2   1  778.08    7.88 
   1   2   2  197.86    2.35 
   1   2   2  203.35    2.64 
   1   2   2  215.71    2.31 
   1   2   2  211.98    2.22 
   1   2   2  191.80    2.28 
   1   2   2  199.43    2.37 
   1   2   2  196.35    2.31 
   1   2   2  208.02    2.55 
   1   2   3  540.10    5.16 
   1   2   3  545.67    5.17 
   1   2   3  535.36    5.56 
   1   2   3  492.89    5.25 
   1   2   3  494.79    5.52 
   1   2   3  536.45    5.28 
   1   2   3  535.01    5.66 
   1   2   3  535.39    5.21 
   1   2   4   92.94    1.45 
   1   2   4   87.83    1.11 
   1   2   4   95.86    1.72 
   1   2   4   86.56    1.47 
   1   2   4  101.53    1.43 
   1   2   4  101.34    1.44 
   1   2   4   93.40    1.44 
   1   2   4   92.34    1.43 
   1   2   4   84.00    1.59 
   1   2   4   91.15    1.66 
   1   2   5  214.94    2.88 
   1   2   5  226.62    3.10 
   1   2   5  211.37    2.77 
   1   2   5  209.27    2.94 
   1   2   5  199.60    2.49 
   1   2   5  200.13    2.50 
   1   2   5  208.25    2.41 
   1   2   5  191.36    2.49 
   1   2   5  225.40    2.80 
   1   2   5  224.88    2.80 
   1   2   5  241.19    2.77 
   1   2   5  242.58    2.78 
   1   2   5  205.89    2.79 
   1   2   5  208.30    2.90 
   1   2   5  201.81    2.78 
   1   2   6  168.87    2.25 
   1   2   6  169.24    2.26 
   1   2   6  172.30    2.67 
   1   2   6  175.95    2.70 
   1   2   6  183.85    2.73 
   1   2   6  176.83    2.61 
   1   2   6  185.75    2.78 
   1   2   6  173.74    2.61 
   1   2   6  173.12    2.58 
   1   2   7    4.73    0.53 
   1   2   7    3.86    0.41 
   1   2   7    4.33    0.37 
   1   2   7    4.29    0.45 
   1   2   7    4.17    0.44 
   1   2   7    4.37    0.58 
   1   2   7    4.30    0.43 
   1   2   7    4.45    0.58 
   1   2   7    4.35    0.53 
   1   2   7    4.37    0.46 
   1   2   7    4.43    0.39 
   1   2   8  103.07    2.10 
   1   2   8   98.72    1.62 
   1   2   8  101.22    1.75 
   1   2   8  103.14    1.76 
   1   2   8  103.87    2.13 
   1   2   8   98.40    1.90 
   1   2   8  103.02    2.18 
   1   2   8  103.43    2.13 
   1   2   8  102.04    1.96 
   1   2   8  102.91    1.65 
   1   2   9   37.95    0.95 
   1   2   9   41.11    1.38 
   1   2   9   39.95    1.43 
   1   2   9   40.99    1.10 
   1   2   9   40.94    1.10 
   1   2   9   43.24    1.02 
   1   2   9   40.00    1.35 
   1   2   9   41.74    1.20 
   1   2  10    2.45    0.52 
   1   2  10    2.39    0.36 
   1   2  10    1.85    0.45 
   1   2  11    0.69    0.29 
   1   2  11    0.80    0.26 
   1   2  12    0.13    0.17 
   1   3 -11   15.24    0.53 
   1   3 -11   15.03    0.56 
   1   3 -11   14.12    0.56 
   1   3 -10    8.35    0.75 
   1   3 -10    6.35    0.69 
   1   3 -10    7.73    0.70 
   1   3 -10    8.59    0.49 
   1   3 -10    9.14    0.49 
   1   3 -10   10.35    0.57 
   1   3 -10    9.27    0.71 
   1   3  -9    3.49    0.45 
   1   3  -9    4.81    0.55 
   1   3  -9    3.37    0.69 
   1   3  -9    3.42    0.67 
   1   3  -9    3.58    0.68 
   1   3  -9    4.25    0.68 
   1   3  -9    3.57    0.47 
   1   3  -9    3.55    0.48 
   1   3  -9    3.36    0.70 
   1   3  -9    4.26    0.83 
   1   3  -9    3.95    0.68 
   1   3  -8    4.11    0.72 
   1   3  -8    3.96    0.71 
   1   3  -8    5.57    0.58 
   1   3  -8    1.85    1.44 
   1   3  -8    4.75    0.54 
   1   3  -8    5.59    0.61 
   1   3  -8    7.33    0.90 
   1   3  -8    6.57    0.89 
   1   3  -8    4.32    0.52 
   1   3  -8    4.99    0.54 
   1   3  -8    4.70    0.78 
   1   3  -8    3.93    0.74 
   1   3  -8    4.18    0.76 
   1   3  -8    4.68    0.74 
   1   3  -8    4.29    0.76 
   1   3  -7   21.66    1.21 
   1   3  -7   21.00    1.19 
   1   3  -7   21.08    0.82 
   1   3  -7   23.90    0.92 
   1   3  -7   24.83    1.25 
   1   3  -7   24.70    1.27 
   1   3  -7   20.43    0.82 
   1   3  -7   21.90    0.84 
   1   3  -7   22.55    1.20 
   1   3  -7   21.04    1.14 
   1   3  -7   22.90    1.18 
   1   3  -7   19.54    1.11 
   1   3  -7   19.51    1.10 
   1   3  -7   22.85    0.89 
   1   3  -6   19.80    1.02 
   1   3  -6   18.10    1.05 
   1   3  -6   18.64    1.07 
   1   3  -6   17.15    0.70 
   1   3  -6   17.88    0.71 
   1   3  -6   18.44    1.03 
   1   3  -6   16.90    0.99 
   1   3  -6   17.19    0.94 
   1   3  -6   19.23    0.79 
   1   3  -6   18.89    1.00 
   1   3  -6   16.73    0.93 
   1   3  -6   16.93    0.94 
   1   3  -5    1.36    0.63 
   1   3  -5    1.50    0.46 
   1   3  -5    0.26    0.54 
   1   3  -5    1.47    0.52 
   1   3  -5    1.08    0.43 
   1   3  -5    0.98    0.41 
   1   3  -5    1.17    0.53 
   1   3  -5    1.28    0.62 
   1   3  -5    1.34    0.41 
   1   3  -4   29.15    0.90 
   1   3  -4   27.96    1.01 
   1   3  -4   27.40    0.88 
   1   3  -4   26.13    0.85 
   1   3  -4   29.68    1.05 
   1   3  -4   29.96    1.03 
   1   3  -4   28.95    0.81 
   1   3  -4   26.35    0.99 
   1   3  -4   26.36    0.99 
   1   3  -3   11.88    0.67 
   1   3  -3   11.56    0.68 
   1   3  -3   11.57    0.64 
   1   3  -3   10.82    0.52 
   1   3  -3   12.36    0.67 
   1   3  -3   11.44    0.65 
   1   3  -2  253.45    2.80 
   1   3  -2  253.47    3.02 
   1   3  -2  258.74    3.15 
   1   3  -2  262.52    3.04 
   1   3  -1  190.61    2.07 
   1   3  -1  183.28    2.45 
   1   3  -1  187.97    2.34 
   1   3  -1  185.23    2.19 
   1   3   0    4.33    0.35 
   1   3   1    6.20    0.58 
   1   3   1    6.82    0.56 
   1   3   1    7.72    0.36 
   1   3   1    7.25    0.50 
   1   3   2   29.98    0.78 
   1   3   2   28.70    0.83 
   1   3   2   29.65    0.78 
   1   3   2   27.88    0.89 
   1   3   2   29.33    0.71 
   1   3   2   28.16    0.97 
   1   3   2   29.89    0.97 
   1   3   2   27.06    0.79 
   1   3   2   26.35    0.86 
   1   3   3   48.62    0.82 
   1   3   3   50.77    1.24 
   1   3   3   47.02    1.21 
   1   3   3   49.36    1.02 
   1   3   3   50.41    0.96 
   1   3   3   51.10    0.88 
   1   3   3   48.12    0.99 
   1   3   3   45.63    1.03 
   1   3   3   49.54    1.01 
   1   3   3   48.58    1.18 
   1   3   3   49.51    1.08 
   1   3   4   42.60    0.92 
   1   3   4   42.41    0.93 
   1   3   4   42.23    0.84 
   1   3   4   46.32    1.18 
   1   3   4   46.13    1.02 
   1   3   4   46.51    1.03 
   1   3   4   43.80    0.98 
   1   3   4   44.07    0.85 
   1   3   4   44.14    1.21 
   1   3   4   46.61    1.02 
   1   3   4   42.67    0.77 
   1   3   4   42.47    1.06 
   1   3   5  144.56    2.29 
   1   3   5  147.87    2.06 
   1   3   5  140.34    2.00 
   1   3   5  143.54    2.02 
   1   3   5  142.47    1.92 
   1   3   5  160.97    2.28 
   1   3   5  155.10    2.46 
   1   3   5  159.29    2.28 
   1   3   5  149.09    2.47 
   1   3   5  144.38    2.43 
   1   3   5  147.99    2.25 
   1   3   5  140.12    2.31 
   1   3   6    1.26    0.38 
   1   3   6    1.58    0.37 
   1   3   6    1.62    0.36 
   1   3   6    1.74    0.35 
   1   3   6    1.38    0.40 
   1   3   6    1.57    0.46 
   1   3   6    1.30    0.27 
   1   3   6    1.44    0.31 
   1   3   6    1.24    0.31 
   1   3   6    1.63    0.41 
   1   3   7  133.54    1.92 
   1   3   7  139.87    2.08 
   1   3   7  124.47    2.01 
   1   3   7  126.02    2.02 
   1   3   7  128.15    1.97 
   1   3   7  134.06    2.53 
   1   3   7  128.88    1.87 
   1   3   7  140.17    2.56 
   1   3   7  121.54    2.38 
   1   3   7  129.54    2.33 
   1   3   7  133.56    2.36 
   1   3   8    2.64    0.45 
   1   3   8    3.02    0.49 
   1   3   8    2.74    0.48 
   1   3   8    1.85    0.39 
   1   3   8    2.57    0.36 
   1   3   8    2.69    0.60 
   1   3   8    2.57    0.40 
   1   3   8    2.03    0.55 
   1   3   8    2.87    0.47 
   1   3   9   13.05    0.53 
   1   3   9   13.36    0.90 
   1   3   9   13.35    0.61 
   1   3   9   13.63    0.66 
   1   3   9   13.57    0.77 
   1   3   9   13.87    0.70 
   1   3   9   13.60    0.70 
   1   3  10   42.28    0.83 
   1   3  10   37.95    1.27 
   1   3  10   33.65    1.32 
   1   3  10   39.16    0.90 
   1   3  10   40.52    1.18 
   1   3  10   34.58    1.00 
   1   3  10   35.26    1.01 
   1   3  10   38.22    0.97 
   1   3  11    1.21    0.30 
   1   4 -11    2.04    0.28 
   1   4 -10    0.02    0.33 
   1   4 -10   -0.14    0.33 
   1   4  -9    0.04    0.38 
   1   4  -9    0.25    0.39 
   1   4  -9    0.31    0.44 
   1   4  -9    0.32    0.46 
   1   4  -9    0.14    0.45 
   1   4  -9    0.36    0.49 
   1   4  -9   -0.37    0.49 
   1   4  -9   -0.17    0.50 
   1   4  -9    0.18    0.44 
   1   4  -9   -0.03    0.37 
   1   4  -8   15.89    0.75 
   1   4  -8   21.37    0.85 
   1   4  -8   21.12    0.95 
   1   4  -8   21.84    0.95 
   1   4  -8   14.49    0.96 
   1   4  -8   16.95    1.04 
   1   4  -8   13.94    0.95 
   1   4  -8   19.54    0.83 
   1   4  -8   15.25    1.03 
   1   4  -8   17.04    1.11 
   1   4  -8   19.08    0.83 
   1   4  -8   15.78    1.06 
   1   4  -7    1.15    0.55 
   1   4  -7    1.14    0.57 
   1   4  -7    1.71    0.53 
   1   4  -7    1.20    0.48 
   1   4  -7    1.81    0.50 
   1   4  -7    2.37    0.61 
   1   4  -7    1.62    0.59 
   1   4  -7    1.81    0.41 
   1   4  -7    1.76    0.41 
   1   4  -7    1.64    0.63 
   1   4  -7    1.23    0.66 
   1   4  -7    1.94    0.62 
   1   4  -7    1.91    0.78 
   1   4  -7    1.42    0.61 
   1   4  -7    1.51    0.55 
   1   4  -7    1.17    0.57 
   1   4  -6    0.37    0.45 
   1   4  -6    0.77    0.57 
   1   4  -6    0.38    0.56 
   1   4  -6    1.12    0.97 
   1   4  -6    0.08    0.55 
   1   4  -6    0.15    0.59 
   1   4  -6   -0.41    0.56 
   1   4  -6    0.08    0.58 
   1   4  -6    0.21    0.57 
   1   4  -6    0.62    0.53 
   1   4  -6    0.13    0.52 
   1   4  -6   -0.10    0.50 
   1   4  -6    0.39    0.49 
   1   4  -6    0.25    0.50 
   1   4  -5    1.66    1.90 
   1   4  -5    0.90    0.50 
   1   4  -5    0.68    0.40 
   1   4  -5    0.88    0.51 
   1   4  -5    1.08    0.52 
   1   4  -5   -0.32    0.95 
   1   4  -5    0.23    0.48 
   1   4  -5    0.82    0.55 
   1   4  -5    0.08    0.52 
   1   4  -5    0.50    0.51 
   1   4  -5    0.38    0.49 
   1   4  -5    0.14    0.47 
   1   4  -5    0.50    0.44 
   1   4  -5    0.78    0.44 
   1   4  -4   54.56    1.15 
   1   4  -4   62.42    1.34 
   1   4  -4   62.60    1.33 
   1   4  -4   53.25    1.43 
   1   4  -4   55.15    1.44 
   1   4  -4   44.45    1.16 
   1   4  -4   42.15    1.53 
   1   4  -4   53.26    1.39 
   1   4  -4   56.12    1.46 
   1   4  -4   46.47    1.25 
   1   4  -4   59.25    1.45 
   1   4  -4   48.89    1.22 
   1   4  -3   29.59    0.79 
   1   4  -3   32.05    0.89 
   1   4  -3   32.58    0.89 
   1   4  -3   26.49    1.04 
   1   4  -3   30.33    0.99 
   1   4  -3   30.12    1.05 
   1   4  -3   33.46    1.03 
   1   4  -3   31.68    0.99 
   1   4  -3   28.59    0.88 
   1   4  -3   30.40    1.02 
   1   4  -2    2.01    0.72 
   1   4  -2    2.37    0.32 
   1   4  -2    1.60    0.35 
   1   4  -2    1.61    0.36 
   1   4  -2    1.11    0.39 
   1   4  -2    1.55    0.50 
   1   4  -2    0.90    0.36 
   1   4  -2    2.02    0.40 
   1   4  -2    1.88    0.37 
   1   4  -1   94.30    1.46 
   1   4  -1   88.28    1.74 
   1   4  -1   85.24    1.43 
   1   4  -1   85.68    1.54 
   1   4  -1   95.93    1.60 
   1   4   0   89.04    1.34 
   1   4   0   88.44    1.80 
   1   4   0   85.25    1.66 
   1   4   0   86.65    1.48 
   1   4   0   89.55    1.47 
   1   4   1   20.32    0.57 
   1   4   1   19.65    0.88 
   1   4   1   20.95    0.75 
   1   4   1   20.61    0.73 
   1   4   1   19.21    0.81 
   1   4   1   20.48    0.83 
   1   4   1   21.40    0.79 
   1   4   1   19.69    0.67 
   1   4   2    9.56    0.56 
   1   4   2    9.33    0.60 
   1   4   2    9.96    0.58 
   1   4   2    9.31    0.63 
   1   4   2    9.89    0.56 
   1   4   2    9.68    0.56 
   1   4   2    9.71    0.42 
   1   4   2    9.16    0.68 
   1   4   2    9.72    0.69 
   1   4   2   11.44    0.56 
   1   4   2    9.62    0.47 
   1   4   3    0.76    0.28 
   1   4   3    0.90    0.48 
   1   4   3    0.36    0.31 
   1   4   3    0.50    0.34 
   1   4   3    0.36    0.30 
   1   4   3    0.44    0.35 
   1   4   3    0.57    0.35 
   1   4   3    0.15    0.45 
   1   4   3    0.49    0.46 
   1   4   3    0.71    0.27 
   1   4   3    0.41    0.35 
   1   4   3    0.53    0.37 
   1   4   4   13.88    0.55 
   1   4   4   13.73    0.65 
   1   4   4   14.85    0.74 
   1   4   4   13.92    0.65 
   1   4   4   15.12    0.83 
   1   4   4   13.66    0.78 
   1   4   4   14.36    0.79 
   1   4   4   15.20    0.54 
   1   4   4   15.35    0.64 
   1   4   4   13.20    0.72 
   1   4   5  186.75    3.01 
   1   4   5  198.76    2.53 
   1   4   5  201.86    2.90 
   1   4   5  197.55    3.00 
   1   4   5  203.38    2.92 
   1   4   5  161.04    3.12 
   1   4   5  193.38    2.39 
   1   4   5  201.66    3.11 
   1   4   5  215.25    3.24 
   1   4   5  170.91    2.87 
   1   4   5  204.02    2.64 
   1   4   5  196.79    2.54 
   1   4   6   15.90    0.87 
   1   4   6   16.04    0.82 
   1   4   6   17.12    0.70 
   1   4   6   16.94    0.74 
   1   4   6   16.89    0.74 
   1   4   6   16.70    0.68 
   1   4   6   16.19    0.60 
   1   4   6   19.19    1.00 
   1   4   6   17.73    0.94 
   1   4   6   15.34    0.53 
   1   4   6   15.61    0.61 
   1   4   6   15.08    0.90 
   1   4   6   16.07    0.73 
   1   4   7   14.93    0.54 
   1   4   7   15.32    0.65 
   1   4   7   17.55    0.77 
   1   4   7   17.61    0.76 
   1   4   7   17.30    0.73 
   1   4   7   16.90    0.65 
   1   4   7   16.74    0.63 
   1   4   7   17.64    0.98 
   1   4   7   16.75    0.72 
   1   4   7   16.74    0.78 
   1   4   7   16.49    0.92 
   1   4   8    0.45    0.21 
   1   4   8    0.37    0.34 
   1   4   8    1.37    0.53 
   1   4   8    0.71    0.32 
   1   4   8    0.80    0.30 
   1   4   8    0.98    0.37 
   1   4   8    1.09    0.44 
   1   4   8    0.73    0.42 
   1   4   9   10.78    0.78 
   1   4   9   10.86    0.53 
   1   4   9   10.63    0.49 
   1   4   9   11.44    0.59 
   1   4   9   10.98    0.63 
   1   4   9   11.85    0.64 
   1   4  10    5.72    0.55 
   1   4  10    4.01    0.44 
   1   4  10    3.73    0.45 
   1   4  10    5.13    0.37 
   1   4  10    5.67    0.34 
   1   4  10    4.93    0.40 
   1   4  11   12.12    0.36 
   1   5 -10    1.10    0.28 
   1   5 -10    2.10    0.31 
   1   5 -10    1.71    0.29 
   1   5 -10    1.52    0.26 
   1   5  -9   54.33    1.18 
   1   5  -9   53.97    1.17 
   1   5  -9   53.32    1.05 
   1   5  -8    6.53    0.52 
   1   5  -8    6.34    0.54 
   1   5  -8    6.86    0.59 
   1   5  -8    6.48    0.59 
   1   5  -8    5.12    0.66 
   1   5  -8    6.54    0.49 
   1   5  -8    7.73    0.58 
   1   5  -8    4.42    0.66 
   1   5  -7    0.52    0.47 
   1   5  -7    0.41    0.44 
   1   5  -7    0.52    0.43 
   1   5  -7    1.16    0.51 
   1   5  -7    0.61    0.49 
   1   5  -7    0.43    0.44 
   1   5  -7    0.69    0.59 
   1   5  -7    0.41    0.51 
   1   5  -7    0.40    0.52 
   1   5  -7    0.32    0.51 
   1   5  -6    0.09    0.48 
   1   5  -6    0.41    0.49 
   1   5  -6    0.24    0.50 
   1   5  -6    0.34    0.42 
   1   5  -6    0.36    0.48 
   1   5  -6    0.26    0.44 
   1   5  -6    0.57    0.50 
   1   5  -6    0.46    0.52 
   1   5  -6    0.46    0.54 
   1   5  -6    1.97    0.64 
   1   5  -6    0.42    0.58 
   1   5  -6    0.49    0.54 
   1   5  -6    0.14    0.52 
   1   5  -6    0.51    0.51 
   1   5  -5   21.16    1.16 
   1   5  -5   22.47    1.05 
   1   5  -5   20.84    1.14 
   1   5  -5   24.34    0.77 
   1   5  -5   27.45    0.89 
   1   5  -5   28.88    0.96 
   1   5  -5   29.96    1.03 
   1   5  -5   31.12    1.04 
   1   5  -5   24.50    0.92 
   1   5  -5   30.81    1.06 
   1   5  -5   22.94    1.06 
   1   5  -5   26.71    1.20 
   1   5  -5   23.16    1.17 
   1   5  -5   27.00    1.21 
   1   5  -5   25.05    1.12 
   1   5  -5   29.39    1.22 
   1   5  -5   29.44    1.25 
   1   5  -5   26.97    1.25 
   1   5  -4   23.91    1.02 
   1   5  -4   24.72    0.83 
   1   5  -4   22.35    0.74 
   1   5  -4   27.97    0.88 
   1   5  -4   28.26    0.94 
   1   5  -4   28.28    0.94 
   1   5  -4   27.24    0.96 
   1   5  -4   30.68    1.04 
   1   5  -4   25.63    0.99 
   1   5  -4   28.46    1.13 
   1   5  -4   28.21    1.24 
   1   5  -4   27.55    1.15 
   1   5  -4   25.98    1.13 
   1   5  -4   26.57    1.08 
   1   5  -4   27.31    1.13 
   1   5  -3   72.54    1.62 
   1   5  -3   65.39    1.21 
   1   5  -3   69.09    1.27 
   1   5  -3   79.73    1.42 
   1   5  -3   79.82    1.46 
   1   5  -3   79.90    1.46 
   1   5  -3   81.46    1.58 
   1   5  -3   82.46    1.59 
   1   5  -3   72.74    1.73 
   1   5  -3   80.52    1.69 
   1   5  -3   78.28    1.78 
   1   5  -3   71.07    1.78 
   1   5  -3   72.51    1.66 
   1   5  -3   63.02    1.81 
   1   5  -2   42.14    1.12 
   1   5  -2   38.97    0.93 
   1   5  -2   41.37    0.95 
   1   5  -2   41.87    0.95 
   1   5  -2   42.79    1.28 
   1   5  -2   39.71    1.31 
   1   5  -2   37.74    1.09 
   1   5  -2   41.44    1.23 
   1   5  -1   18.48    0.78 
   1   5  -1   17.61    0.70 
   1   5  -1   19.92    0.63 
   1   5  -1   19.29    0.62 
   1   5  -1   19.07    0.62 
   1   5  -1   14.30    1.00 
   1   5  -1   17.07    0.87 
   1   5  -1   17.34    0.92 
   1   5  -1   20.52    0.84 
   1   5   0  217.16    2.89 
   1   5   0  191.54    2.69 
   1   5   0  184.50    2.27 
   1   5   0  190.47    2.66 
   1   5   0  197.99    2.62 
   1   5   0  186.94    2.45 
   1   5   0  181.54    2.31 
   1   5   0  181.35    2.90 
   1   5   0  182.10    2.72 
   1   5   0  192.27    3.11 
   1   5   0  184.53    3.07 
   1   5   0  205.60    3.17 
   1   5   0  199.16    2.90 
   1   5   1    2.04    0.45 
   1   5   1    1.77    0.42 
   1   5   1    2.46    0.48 
   1   5   1    2.11    0.46 
   1   5   1    1.85    0.31 
   1   5   1    1.96    0.47 
   1   5   1    1.87    0.42 
   1   5   1    2.28    0.43 
   1   5   2   25.59    0.84 
   1   5   2   25.84    0.86 
   1   5   2   24.24    0.94 
   1   5   2   23.78    1.00 
   1   5   2   24.98    0.97 
   1   5   2   27.05    1.01 
   1   5   2   23.71    0.76 
   1   5   2   28.46    0.95 
   1   5   2   25.58    0.73 
   1   5   2   26.26    1.04 
   1   5   2   25.62    0.92 
   1   5   3   55.98    1.43 
   1   5   3   55.67    1.57 
   1   5   3   56.96    1.46 
   1   5   3   60.60    1.57 
   1   5   3   58.13    1.04 
   1   5   3   60.66    1.16 
   1   5   3   61.63    1.61 
   1   5   3   62.97    1.49 
   1   5   3   57.91    1.20 
   1   5   3   62.08    1.31 
   1   5   3   64.21    1.34 
   1   5   4   24.02    0.69 
   1   5   4   25.95    0.88 
   1   5   4   27.50    0.91 
   1   5   4   25.71    0.81 
   1   5   4   24.02    0.95 
   1   5   4   27.80    0.94 
   1   5   4   23.99    0.97 
   1   5   4   23.16    1.12 
   1   5   4   27.02    0.88 
   1   5   4   27.81    1.08 
   1   5   4   27.41    1.14 
   1   5   4   26.50    0.80 
   1   5   4   23.84    0.70 
   1   5   4   29.30    0.77 
   1   5   4   27.44    1.08 
   1   5   5    3.41    0.33 
   1   5   5    4.76    0.53 
   1   5   5    5.05    0.53 
   1   5   5    4.57    0.48 
   1   5   5    3.62    0.51 
   1   5   5    3.07    0.75 
   1   5   5    4.48    0.54 
   1   5   5    4.65    0.55 
   1   5   5    3.98    0.60 
   1   5   5    5.15    0.64 
   1   5   5    3.94    0.47 
   1   5   5    5.16    0.68 
   1   5   5    3.96    0.40 
   1   5   5    4.65    0.45 
   1   5   5    3.89    0.63 
   1   5   6    7.77    0.80 
   1   5   6    8.38    0.59 
   1   5   6    8.56    0.68 
   1   5   6    8.92    0.76 
   1   5   6    4.74    0.81 
   1   5   6    7.76    0.44 
   1   5   6    5.55    0.53 
   1   5   6    7.96    0.52 
   1   5   6   10.20    0.74 
   1   5   6    9.68    0.55 
   1   5   7   16.79    0.66 
   1   5   7   15.71    0.92 
   1   5   7   15.40    0.71 
   1   5   7   16.03    0.65 
   1   5   8   39.68    1.30 
   1   5   8   41.90    0.95 
   1   5   8   40.04    0.94 
   1   5   9    6.50    0.58 
   1   5   9    6.04    0.64 
   1   5   9    5.91    0.48 
   1   5   9    6.14    0.49 
   1   5   9    6.36    0.41 
   1   5   9    7.26    0.42 
   1   6  -9    0.48    0.24 
   1   6  -9    0.51    0.28 
   1   6  -9    0.65    0.24 
   1   6  -9    0.77    0.25 
   1   6  -8    2.42    0.39 
   1   6  -8    1.59    0.36 
   1   6  -8    1.93    0.38 
   1   6  -8    2.44    0.40 
   1   6  -8    2.39    0.36 
   1   6  -7    0.01    0.36 
   1   6  -7    0.25    0.40 
   1   6  -7    0.10    0.40 
   1   6  -7    0.46    0.43 
   1   6  -7   -0.26    0.36 
   1   6  -7    0.27    0.35 
   1   6  -7    0.05    0.43 
   1   6  -7   -0.01    0.41 
   1   6  -6   11.80    0.70 
   1   6  -6    9.98    0.81 
   1   6  -6   11.23    0.94 
   1   6  -6   13.88    0.72 
   1   6  -6   13.71    0.73 
   1   6  -6   13.96    0.73 
   1   6  -6   13.64    0.63 
   1   6  -6   15.08    0.73 
   1   6  -6   15.59    0.80 
   1   6  -5    5.12    0.57 
   1   6  -5    5.43    0.57 
   1   6  -5    3.53    0.58 
   1   6  -5    4.66    0.69 
   1   6  -5    3.66    0.56 
   1   6  -5    1.42    0.46 
   1   6  -5    2.34    0.52 
   1   6  -5    1.64    0.53 
   1   6  -5    3.58    0.51 
   1   6  -5    1.90    0.64 
   1   6  -4    3.09    0.54 
   1   6  -4    2.38    0.48 
   1   6  -4    2.41    0.48 
   1   6  -4    1.84    0.45 
   1   6  -4    1.68    0.52 
   1   6  -4    1.82    0.62 
   1   6  -4    2.75    0.46 
   1   6  -4    2.41    0.49 
   1   6  -4    2.48    0.55 
   1   6  -4    2.44    0.53 
   1   6  -4    2.31    0.58 
   1   6  -4    2.68    0.59 
   1   6  -4    2.27    0.56 
   1   6  -4    1.66    0.50 
   1   6  -3    1.20    0.48 
   1   6  -3    0.96    0.40 
   1   6  -3    0.91    0.40 
   1   6  -3    0.86    0.46 
   1   6  -3    0.74    0.53 
   1   6  -3    1.49    0.58 
   1   6  -3    0.89    0.39 
   1   6  -3    1.08    0.47 
   1   6  -3    1.05    0.50 
   1   6  -3    1.15    0.56 
   1   6  -3    1.13    0.51 
   1   6  -3    0.50    0.52 
   1   6  -2   30.92    0.90 
   1   6  -2   31.19    0.90 
   1   6  -2   35.17    1.06 
   1   6  -2   35.33    1.36 
   1   6  -2   33.75    1.30 
   1   6  -2   32.72    0.93 
   1   6  -2   31.67    0.93 
   1   6  -2   28.97    1.21 
   1   6  -2   32.36    1.20 
   1   6  -2   33.63    0.90 
   1   6  -2   30.42    0.88 
   1   6  -1   30.25    0.85 
   1   6  -1   33.86    0.89 
   1   6  -1   29.87    0.88 
   1   6  -1   31.13    0.85 
   1   6  -1   31.76    0.86 
   1   6  -1   33.25    1.01 
   1   6  -1   29.28    1.34 
   1   6  -1   34.80    1.37 
   1   6  -1   30.23    1.34 
   1   6  -1   30.16    1.24 
   1   6  -1   32.47    0.93 
   1   6  -1   32.21    1.26 
   1   6  -1   30.06    1.14 
   1   6  -1   35.95    1.30 
   1   6   0   92.65    2.01 
   1   6   0   73.87    1.32 
   1   6   0   84.70    1.56 
   1   6   0   83.61    1.54 
   1   6   0   82.01    1.60 
   1   6   0   74.85    1.33 
   1   6   0   72.77    1.97 
   1   6   0   62.64    2.05 
   1   6   0   72.99    1.98 
   1   6   0   77.55    1.87 
   1   6   0   85.45    1.46 
   1   6   0   76.72    1.47 
   1   6   0   78.36    1.92 
   1   6   0   78.06    1.34 
   1   6   0   86.61    1.43 
   1   6   1    0.15    0.54 
   1   6   1    0.10    0.40 
   1   6   1   -0.08    0.42 
   1   6   1    0.12    0.39 
   1   6   1   -0.58    0.49 
   1   6   1    0.44    0.42 
   1   6   1    0.26    0.42 
   1   6   1    0.58    0.49 
   1   6   1   -0.01    0.47 
   1   6   1    0.04    0.40 
   1   6   1    0.01    0.32 
   1   6   1    0.40    0.48 
   1   6   1    0.56    0.37 
   1   6   2    0.27    0.40 
   1   6   2    0.27    0.41 
   1   6   2    0.73    0.48 
   1   6   2    0.60    0.50 
   1   6   2    0.29    0.39 
   1   6   2    0.38    0.39 
   1   6   2    0.47    0.39 
   1   6   2    0.50    0.53 
   1   6   2    0.17    0.47 
   1   6   2    0.47    0.32 
   1   6   3    0.03    0.36 
   1   6   3    0.70    0.58 
   1   6   3   -0.22    0.42 
   1   6   3    0.23    0.40 
   1   6   3    0.15    0.40 
   1   6   3   -0.08    0.52 
   1   6   3    0.28    0.34 
   1   6   3    0.12    0.41 
   1   6   3    0.42    0.43 
   1   6   3    0.21    0.42 
   1   6   4   24.50    0.86 
   1   6   4   22.09    1.02 
   1   6   4   19.88    1.00 
   1   6   4   25.90    0.86 
   1   6   4   26.62    1.15 
   1   6   4   24.72    0.92 
   1   6   4   25.59    0.93 
   1   6   4   23.40    0.94 
   1   6   4   20.56    0.87 
   1   6   4   23.51    0.75 
   1   6   5  169.11    2.45 
   1   6   5  169.88    2.73 
   1   6   5  174.02    2.54 
   1   6   5  175.11    2.55 
   1   6   5  164.33    2.50 
   1   6   5  162.29    3.03 
   1   6   6    0.10    0.43 
   1   6   6    0.57    0.43 
   1   6   6    0.17    0.42 
   1   6   6    0.30    0.52 
   1   6   6    0.66    0.47 
   1   6   6    0.29    0.40 
   1   6   6   -0.42    0.58 
   1   6   7   44.17    1.28 
   1   6   7   42.84    1.44 
   1   6   7   41.43    1.09 
   1   6   7   45.59    1.18 
   1   6   7   45.68    1.18 
   1   6   8   31.05    1.15 
   1   7  -7    0.16    0.29 
   1   7  -7    0.23    0.27 
   1   7  -7   -0.02    0.29 
   1   7  -6   27.45    1.28 
   1   7  -6   40.48    0.88 
   1   7  -6   48.90    1.03 
   1   7  -6   43.36    1.01 
   1   7  -6   34.28    0.97 
   1   7  -6   32.18    0.95 
   1   7  -6   35.74    0.93 
   1   7  -6   25.78    0.97 
   1   7  -5    0.28    0.36 
   1   7  -5    0.46    0.38 
   1   7  -5    0.84    0.43 
   1   7  -5    0.74    0.43 
   1   7  -5    0.47    0.46 
   1   7  -5    0.31    0.46 
   1   7  -5    0.87    0.39 
   1   7  -5   -0.01    0.48 
   1   7  -5    0.61    0.39 
   1   7  -4    5.87    0.54 
   1   7  -4    5.80    0.54 
   1   7  -4    5.07    0.73 
   1   7  -4    5.89    0.56 
   1   7  -4    7.76    0.64 
   1   7  -4    7.47    0.61 
   1   7  -4    7.49    0.61 
   1   7  -4    4.15    0.54 
   1   7  -3    7.91    0.63 
   1   7  -3    7.25    0.55 
   1   7  -3    7.11    0.55 
   1   7  -3    6.58    0.53 
   1   7  -3    6.27    0.87 
   1   7  -3    5.44    0.84 
   1   7  -3    5.86    0.55 
   1   7  -3    7.56    0.60 
   1   7  -3    8.42    0.65 
   1   7  -3    8.61    0.63 
   1   7  -3    6.91    0.79 
   1   7  -3    7.37    0.75 
   1   7  -2   10.79    0.68 
   1   7  -2   10.05    0.62 
   1   7  -2    9.69    0.86 
   1   7  -2   10.19    0.87 
   1   7  -2    8.96    0.63 
   1   7  -2   11.67    0.66 
   1   7  -2    9.27    0.60 
   1   7  -2    8.78    0.80 
   1   7  -2    9.15    0.84 
   1   7  -1   43.50    1.60 
   1   7  -1   35.28    1.00 
   1   7  -1   43.95    1.18 
   1   7  -1   36.05    1.01 
   1   7  -1   30.05    1.48 
   1   7  -1   37.88    1.54 
   1   7  -1   30.61    1.53 
   1   7  -1   36.60    1.44 
   1   7  -1   46.16    1.16 
   1   7  -1   44.87    1.12 
   1   7  -1   41.70    1.07 
   1   7  -1   39.78    1.43 
   1   7   0    5.80    0.73 
   1   7   0    6.42    0.59 
   1   7   0    5.15    0.73 
   1   7   0    4.57    0.71 
   1   7   0    5.28    0.76 
   1   7   0    4.62    0.70 
   1   7   0    6.48    0.64 
   1   7   0    5.98    0.54 
   1   7   0    5.52    0.58 
   1   7   0    6.66    0.61 
   1   7   0    5.09    0.82 
   1   7   1   15.27    1.08 
   1   7   1   19.40    0.74 
   1   7   1   18.24    0.74 
   1   7   1   17.42    0.81 
   1   7   1   20.46    0.82 
   1   7   1   12.67    0.95 
   1   7   1   12.29    0.95 
   1   7   1   12.89    0.95 
   1   7   1   16.83    1.04 
   1   7   1   18.40    0.80 
   1   7   1    6.98    0.81 
   1   7   1   17.31    0.75 
   1   7   2    9.79    0.60 
   1   7   2    9.57    0.84 
   1   7   2    7.15    0.73 
   1   7   2    7.21    0.72 
   1   7   2    6.69    0.78 
   1   7   2    9.24    0.62 
   1   7   2   10.57    0.63 
   1   7   2   10.39    0.62 
   1   7   3    8.94    0.61 
   1   7   3    8.56    0.60 
   1   7   3    7.66    0.79 
   1   7   3    8.17    0.56 
   1   7   3    6.76    0.66 
   1   7   3    4.50    0.77 
   1   7   3    6.37    0.67 
   1   7   3    6.39    0.67 
   1   7   3    2.61    0.61 
   1   7   4   32.64    1.02 
   1   7   4   31.46    0.99 
   1   7   4   30.02    1.09 
   1   7   4   32.66    1.02 
   1   7   4   36.04    1.05 
   1   7   4   36.44    1.06 
   1   7   4   33.03    1.12 
   1   7   4   33.84    1.42 
   1   7   5   94.82    1.68 
   1   7   5   93.77    1.69 
   1   7   5   88.36    1.65 
   1   7   5   81.47    1.72 
   1   7   5   87.48    1.58 
   1   7   6   26.80    0.86 
   1   7   6   27.88    0.87 
   1   7   6   27.38    0.86 
   1   7   7    8.17    0.50 
   1   7   7    8.76    0.52 
   1   7   7    9.59    0.54 
   1   7   8   -0.02    0.26 
   1   7   8    0.22    0.25 
   1   8  -6    0.04    0.31 
   1   8  -6    0.24    0.29 
   1   8  -5   24.65    0.67 
   1   8  -5   28.54    0.75 
   1   8  -5   16.21    0.59 
   1   8  -5   19.53    0.66 
   1   8  -5   18.98    0.62 
   1   8  -4    7.24    0.50 
   1   8  -4    5.56    0.44 
   1   8  -4    5.92    0.48 
   1   8  -4    6.09    0.45 
   1   8  -3    2.16    0.49 
   1   8  -3    1.76    0.36 
   1   8  -3    1.41    0.41 
   1   8  -3    1.27    0.35 
   1   8  -2   29.25    0.85 
   1   8  -1    9.12    0.59 
   1   8  -1   11.65    0.68 
   1   8   0   22.65    0.86 
   1   8   0   23.28    0.86 
   1   8   0   23.35    1.08 
   1   8   1    0.45    0.44 
   1   8   1    0.26    0.50 
   1   8   1   -0.27    0.38 
   1   8   1   -0.26    0.36 
   1   8   1   -0.31    0.48 
   1   8   1   -0.01    0.47 
   1   8   2    0.61    0.40 
   1   8   2   -0.06    0.49 
   1   8   2    0.46    0.35 
   1   8   2    0.38    0.49 
   1   8   3   17.59    0.74 
   1   8   3   17.81    1.02 
   1   8   3   19.92    0.82 
   1   8   4    6.84    0.61 
   1   8   4    6.00    0.52 
   1   8   5  108.34    1.66 
   1   8   5  101.26    1.56 
   1   8   5   90.29    1.53 
   1   8   5   86.60    1.58 
   1   8   6    8.57    0.47 
   1   9  -4   -0.10    0.25 
   1   9  -4    0.39    0.28 
   1   9  -2    3.23    0.39 
   1   9  -2    4.75    0.42 
   1   9  -1    0.94    0.37 
   1   9   0    1.03    0.32 
   1   9   0    1.32    0.32 
   1   9   0    1.86    0.44 
   1   9   1    1.04    0.33 
   1   9   1    1.45    0.33 
   1   9   1    2.14    0.42 
   1   9   2    0.30    0.31 
   1   9   2    0.45    0.29 
   1   9   2    0.76    0.39 
   1   9   3    4.18    0.44 
   1   9   3    2.92    0.38 
   2  -8  -4    9.20    0.43 
   2  -8  -3    0.06    0.26 
   2  -8  -3    0.24    0.30 
   2  -8  -3   -0.11    0.25 
   2  -8  -2   11.29    0.50 
   2  -8  -2   11.51    0.51 
   2  -8  -1    4.08    0.37 
   2  -8  -1    4.41    0.38 
   2  -8   0    1.94    0.38 
   2  -8   0    1.53    0.37 
   2  -8   0    1.37    0.33 
   2  -8   0    1.44    0.32 
   2  -8   0    1.98    0.30 
   2  -8   0    1.80    0.29 
   2  -8   1    5.93    0.52 
   2  -8   1    5.42    0.51 
   2  -8   1    7.16    0.41 
   2  -8   1    6.83    0.41 
   2  -8   2   24.31    0.96 
   2  -8   2   21.97    0.93 
   2  -8   2   27.02    0.65 
   2  -8   2   29.34    0.74 
   2  -8   2   28.45    0.73 
   2  -8   3   33.61    0.73 
   2  -8   3   33.35    0.79 
   2  -8   3   33.43    0.79 
   2  -8   3   34.55    0.84 
   2  -8   4   10.63    0.42 
   2  -8   5    0.14    0.19 
   2  -7  -6   19.43    0.67 
   2  -7  -5   26.03    0.83 
   2  -7  -5   24.65    1.05 
   2  -7  -4    0.90    0.42 
   2  -7  -4    0.56    0.32 
   2  -7  -3   37.44    0.94 
   2  -7  -3   37.67    0.95 
   2  -7  -3   34.65    1.00 
   2  -7  -3   33.24    1.27 
   2  -7  -2    2.22    3.56 
   2  -7  -2   -1.35    3.63 
   2  -7  -2    3.00    1.43 
   2  -7  -2    3.84    0.40 
   2  -7  -2    3.11    0.40 
   2  -7  -2    2.34    2.67 
   2  -7  -1    3.94    0.41 
   2  -7  -1    3.55    0.41 
   2  -7  -1    3.61    2.82 
   2  -7  -1    2.74    2.83 
   2  -7  -1    3.29    0.93 
   2  -7  -1    3.58    0.35 
   2  -7  -1    3.28    0.35 
   2  -7  -1    3.41    0.47 
   2  -7  -1    2.74    0.44 
   2  -7   0   12.52    0.62 
   2  -7   0   13.66    0.64 
   2  -7   0   11.52    0.53 
   2  -7   0   11.77    0.53 
   2  -7   0   10.87    0.72 
   2  -7   0   10.20    0.71 
   2  -7   0   13.99    1.67 
   2  -7   0   11.66    0.98 
   2  -7   0   14.08    1.69 
   2  -7   0   10.41    0.98 
   2  -7   1   88.52    1.44 
   2  -7   1   94.40    1.54 
   2  -7   1   94.51    1.55 
   2  -7   1   88.59    2.41 
   2  -7   1  104.90    2.84 
   2  -7   1  105.65    2.84 
   2  -7   1   91.18    2.45 
   2  -7   1  118.93    2.84 
   2  -7   1   88.88    1.95 
   2  -7   1   87.86    1.94 
   2  -7   2  263.64    3.84 
   2  -7   2  280.53    3.24 
   2  -7   2  286.94    3.32 
   2  -7   2  287.77    3.34 
   2  -7   2  286.75    4.61 
   2  -7   2  275.49    4.51 
   2  -7   2  292.89    4.68 
   2  -7   2  275.21    4.50 
   2  -7   2  268.42    3.69 
   2  -7   2  268.51    3.88 
   2  -7   2  248.82    3.65 
   2  -7   3   13.40    0.75 
   2  -7   3   15.95    0.61 
   2  -7   3   15.02    0.63 
   2  -7   3   15.21    0.63 
   2  -7   3   16.28    1.09 
   2  -7   3   13.58    0.99 
   2  -7   3   12.69    0.98 
   2  -7   3   14.79    0.54 
   2  -7   3   15.23    0.79 
   2  -7   4   37.27    0.87 
   2  -7   4   21.44    0.93 
   2  -7   4   23.84    0.96 
   2  -7   4   34.27    1.16 
   2  -7   4   35.20    1.34 
   2  -7   4   34.06    1.13 
   2  -7   4   36.07    0.82 
   2  -7   4   33.97    1.17 
   2  -7   4   36.47    1.13 
   2  -7   5    5.42    0.39 
   2  -7   5    2.19    0.42 
   2  -7   5    2.17    0.41 
   2  -7   5    5.99    0.37 
   2  -7   5    4.67    0.29 
   2  -7   5    5.41    0.51 
   2  -7   5    4.98    0.48 
   2  -7   5    4.83    0.57 
   2  -7   5    5.34    0.51 
   2  -7   5    5.14    0.50 
   2  -7   6    4.58    0.35 
   2  -7   6    4.59    0.35 
   2  -7   6    4.50    0.32 
   2  -7   7    0.89    0.24 
   2  -7   7    1.13    0.21 
   2  -6  -8   -0.04    0.32 
   2  -6  -8    0.25    0.29 
   2  -6  -7    3.86    0.45 
   2  -6  -7    4.01    0.42 
   2  -6  -6    1.54    0.49 
   2  -6  -6    1.13    0.37 
   2  -6  -5   -0.04    1.32 
   2  -6  -5   -1.50    1.63 
   2  -6  -5    0.45    0.33 
   2  -6  -5   -0.03    0.46 
   2  -6  -4   29.64    0.93 
   2  -6  -4   29.46    1.22 
   2  -6  -3    0.08    1.00 
   2  -6  -3    0.13    1.13 
   2  -6  -3    1.63    0.44 
   2  -6  -3    1.87    0.36 
   2  -6  -3    1.97    0.36 
   2  -6  -2    0.17    1.25 
   2  -6  -2    0.55    1.42 
   2  -6  -2   -0.14    0.78 
   2  -6  -2    0.75    0.34 
   2  -6  -2    0.50    0.31 
   2  -6  -2    0.61    0.33 
   2  -6  -1    0.01    0.29 
   2  -6  -1    0.11    0.29 
   2  -6  -1   -0.16    1.19 
   2  -6  -1    0.11    0.24 
   2  -6  -1    0.10    0.26 
   2  -6   0    8.72    2.40 
   2  -6   0   12.89    0.72 
   2  -6   0    2.87    3.06 
   2  -6   0    3.84    3.12 
   2  -6   0   15.46    1.46 
   2  -6   0   13.47    0.74 
   2  -6   0   13.26    0.52 
   2  -6   0   13.61    0.57 
   2  -6   0   12.77    0.56 
   2  -6   1   -0.14    0.28 
   2  -6   1    0.13    0.31 
   2  -6   1   -0.12    0.32 
   2  -6   1    1.16    1.55 
   2  -6   1   -0.03    0.32 
   2  -6   1   -0.56    0.69 
   2  -6   1    0.05    1.70 
   2  -6   1    0.29    0.65 
   2  -6   1   -1.47    1.74 
   2  -6   1   -0.09    0.33 
   2  -6   1   -0.21    0.32 
   2  -6   2    4.96    0.36 
   2  -6   2    4.81    0.50 
   2  -6   2    4.74    0.41 
   2  -6   2    4.21    0.48 
   2  -6   2    6.56    1.03 
   2  -6   2    4.27    0.49 
   2  -6   2    4.92    0.84 
   2  -6   2    5.87    1.01 
   2  -6   2    6.19    1.00 
   2  -6   2    5.99    0.86 
   2  -6   2    2.59    0.65 
   2  -6   2    4.44    0.50 
   2  -6   2    4.54    0.51 
   2  -6   3   18.21    0.64 
   2  -6   3   19.32    0.88 
   2  -6   3   20.10    0.69 
   2  -6   3   17.08    0.80 
   2  -6   3   20.53    1.24 
   2  -6   3   22.14    1.30 
   2  -6   3   22.17    1.25 
   2  -6   3   21.42    1.30 
   2  -6   3   23.66    1.33 
   2  -6   3   19.59    0.88 
   2  -6   3   14.07    0.79 
   2  -6   3   16.08    1.14 
   2  -6   4    6.30    0.57 
   2  -6   4    5.93    0.44 
   2  -6   4    6.95    0.62 
   2  -6   4    5.55    0.71 
   2  -6   4    7.83    0.84 
   2  -6   4    5.79    0.71 
   2  -6   4    7.19    0.84 
   2  -6   4    6.19    0.42 
   2  -6   4    5.62    0.56 
   2  -6   4    6.90    0.80 
   2  -6   4    4.20    0.49 
   2  -6   4    6.44    0.78 
   2  -6   5    4.09    0.37 
   2  -6   5    3.86    0.49 
   2  -6   5    2.90    0.41 
   2  -6   5    2.61    0.40 
   2  -6   5    3.54    0.48 
   2  -6   5    4.29    0.52 
   2  -6   5    5.60    0.69 
   2  -6   5    3.63    0.65 
   2  -6   5    3.22    0.32 
   2  -6   5    4.04    0.49 
   2  -6   5    4.30    0.65 
   2  -6   6    1.16    0.25 
   2  -6   6    0.84    0.42 
   2  -6   6    1.46    0.36 
   2  -6   6    1.56    0.35 
   2  -6   6    1.48    0.29 
   2  -6   6    0.30    0.30 
   2  -6   6    0.46    0.32 
   2  -6   7   16.37    0.57 
   2  -6   7   14.07    0.50 
   2  -6   7   14.57    0.57 
   2  -6   7   14.78    0.75 
   2  -6   7   14.04    0.74 
   2  -6   8    4.66    0.32 
   2  -6   8    5.01    0.36 
   2  -6   8    4.71    0.30 
   2  -6   9   -0.08    0.18 
   2  -5  -9    2.11    0.37 
   2  -5  -8    1.23    0.42 
   2  -5  -8    0.84    0.51 
   2  -5  -8    2.01    0.38 
   2  -5  -7   -0.12    0.36 
   2  -5  -6    2.16    0.71 
   2  -5  -6    3.26    0.58 
   2  -5  -5    0.13    0.40 
   2  -5  -5    0.38    0.54 
   2  -5  -5    0.41    0.46 
   2  -5  -5    0.21    0.66 
   2  -5  -5   -0.10    0.34 
   2  -5  -5    0.36    0.78 
   2  -5  -4   12.33    0.78 
   2  -5  -4   10.65    0.96 
   2  -5  -3    1.87    0.73 
   2  -5  -3    1.58    0.40 
   2  -5  -2    8.01    0.57 
   2  -5  -2    8.72    0.54 
   2  -5  -2   16.13    1.90 
   2  -5  -2   16.54    1.97 
   2  -5  -2    3.76    0.66 
   2  -5  -2    8.29    0.53 
   2  -5  -1   49.08    1.24 
   2  -5  -1   47.75    1.20 
   2  -5  -1   48.62    1.21 
   2  -5   0   -0.13    0.46 
   2  -5   0    0.16    0.28 
   2  -5   0    0.22    0.25 
   2  -5   0   -0.02    0.26 
   2  -5   1    4.98    0.39 
   2  -5   1    6.49    0.51 
   2  -5   1    6.33    0.49 
   2  -5   1    0.25    1.63 
   2  -5   1    0.15    1.58 
   2  -5   1    7.46    0.91 
   2  -5   1    7.37    0.53 
   2  -5   1    3.95    1.44 
   2  -5   2   35.99    0.83 
   2  -5   2   29.17    0.96 
   2  -5   2   34.73    1.07 
   2  -5   2   36.07    1.10 
   2  -5   2   56.00    2.21 
   2  -5   2   44.08    1.56 
   2  -5   2   56.89    2.25 
   2  -5   2   44.09    1.57 
   2  -5   2   35.65    1.09 
   2  -5   2   53.94    2.17 
   2  -5   3   24.53    0.72 
   2  -5   3   25.60    0.96 
   2  -5   3   22.38    1.23 
   2  -5   3   22.17    0.89 
   2  -5   3   24.00    0.91 
   2  -5   3   34.31    1.44 
   2  -5   3   31.92    1.35 
   2  -5   3   34.82    1.44 
   2  -5   3   33.40    1.38 
   2  -5   3   35.30    1.50 
   2  -5   3   24.00    0.95 
   2  -5   4   54.06    1.12 
   2  -5   4   54.86    1.44 
   2  -5   4   64.39    1.81 
   2  -5   4   50.25    1.05 
   2  -5   4   49.96    1.31 
   2  -5   4   56.09    1.61 
   2  -5   4   66.10    1.89 
   2  -5   4   56.76    1.61 
   2  -5   4   66.83    1.90 
   2  -5   4   52.70    1.41 
   2  -5   4   55.14    1.84 
   2  -5   4   44.85    1.35 
   2  -5   5    0.22    0.23 
   2  -5   5   -0.05    0.26 
   2  -5   5   -0.09    0.53 
   2  -5   5    0.08    0.52 
   2  -5   5   -0.01    0.46 
   2  -5   5    0.17    0.44 
   2  -5   5   -0.12    0.27 
   2  -5   5    0.35    0.36 
   2  -5   6    0.28    0.39 
   2  -5   6    0.53    0.28 
   2  -5   6    0.22    0.36 
   2  -5   6    0.27    0.29 
   2  -5   6    0.46    0.25 
   2  -5   6    0.30    0.46 
   2  -5   6    0.25    0.46 
   2  -5   6    0.03    0.25 
   2  -5   6    0.72    0.43 
   2  -5   7    4.86    0.39 
   2  -5   7    4.45    0.45 
   2  -5   7    4.05    0.53 
   2  -5   7    4.87    0.54 
   2  -5   7    4.34    0.44 
   2  -5   7    4.97    0.53 
   2  -5   7    4.58    0.39 
   2  -5   7    5.11    0.39 
   2  -5   7    5.04    0.38 
   2  -5   8   43.86    0.89 
   2  -5   8   42.14    0.96 
   2  -5   8   44.40    1.20 
   2  -5   8   40.99    0.97 
   2  -5   8   42.20    1.20 
   2  -5   9    5.93    0.37 
   2  -5   9    6.69    0.39 
   2  -5   9    5.87    0.30 
   2  -5   9    6.67    0.38 
   2  -5  10   16.02    0.41 
   2  -4  -9   28.86    0.92 
   2  -4  -8   19.43    0.77 
   2  -4  -8   15.68    0.98 
   2  -4  -8   14.54    1.00 
   2  -4  -8   18.11    1.17 
   2  -4  -7    0.01    0.35 
   2  -4  -7    0.61    0.66 
   2  -4  -7    0.30    0.72 
   2  -4  -6  166.73    2.85 
   2  -4  -6  161.34    3.07 
   2  -4  -5   31.53    1.31 
   2  -4  -5   29.15    1.37 
   2  -4  -5   34.54    1.34 
   2  -4  -5   32.09    1.12 
   2  -4  -5   35.06    1.21 
   2  -4  -4    0.04    0.31 
   2  -4  -4    0.49    0.57 
   2  -4  -3    5.16    0.43 
   2  -4  -3    6.63    0.68 
   2  -4  -2   17.98    0.70 
   2  -4  -2   19.41    0.88 
   2  -4  -1   59.79    1.54 
   2  -4  -1   42.33    1.07 
   2  -4   0   13.02    0.49 
   2  -4   0   12.93    1.52 
   2  -4   0   12.44    1.60 
   2  -4   1  107.68    1.47 
   2  -4   1  114.60    1.61 
   2  -4   2    8.94    0.50 
   2  -4   2    5.62    1.17 
   2  -4   2    5.00    1.19 
   2  -4   2    6.16    0.97 
   2  -4   2    8.82    0.54 
   2  -4   3   28.35    1.15 
   2  -4   3   24.37    0.87 
   2  -4   3   24.52    0.70 
   2  -4   3   26.42    0.92 
   2  -4   3   37.69    1.31 
   2  -4   3   35.74    1.29 
   2  -4   3   34.88    1.35 
   2  -4   3   26.63    0.92 
   2  -4   4    0.85    0.45 
   2  -4   4    0.89    0.29 
   2  -4   4    0.73    0.26 
   2  -4   4    1.12    0.32 
   2  -4   4    0.89    0.46 
   2  -4   4    1.15    0.45 
   2  -4   4    0.63    0.50 
   2  -4   4    0.59    0.26 
   2  -4   4    0.69    0.34 
   2  -4   5   11.45    0.78 
   2  -4   5   11.03    0.67 
   2  -4   5   12.51    0.55 
   2  -4   5   11.75    0.65 
   2  -4   5   11.01    0.65 
   2  -4   5   11.69    0.63 
   2  -4   5   12.90    0.79 
   2  -4   5   10.59    0.64 
   2  -4   6    5.56    0.42 
   2  -4   6    5.25    0.37 
   2  -4   6    5.70    0.64 
   2  -4   6    5.48    0.62 
   2  -4   6    3.47    0.57 
   2  -4   6    5.21    0.51 
   2  -4   6    5.42    0.50 
   2  -4   6    5.29    0.57 
   2  -4   6    5.30    0.55 
   2  -4   7    1.61    0.40 
   2  -4   7    1.01    0.31 
   2  -4   7    1.06    0.30 
   2  -4   7    1.12    0.28 
   2  -4   7    1.60    0.40 
   2  -4   7    0.96    0.34 
   2  -4   7    1.24    0.40 
   2  -4   7    1.21    0.39 
   2  -4   7    1.19    0.41 
   2  -4   7    0.67    0.35 
   2  -4   8   10.16    0.66 
   2  -4   8    9.97    0.48 
   2  -4   8   10.62    0.54 
   2  -4   8   10.39    0.50 
   2  -4   8   11.16    0.54 
   2  -4   8   10.49    0.56 
   2  -4   8    9.69    0.68 
   2  -4   8    9.63    0.64 
   2  -4   8   10.51    0.66 
   2  -4   8   10.65    0.70 
   2  -4   9   17.56    0.63 
   2  -4   9   17.78    0.59 
   2  -4   9   18.30    0.61 
   2  -4   9   18.41    0.63 
   2  -4   9   16.88    0.51 
   2  -4   9   16.16    0.80 
   2  -4   9   16.77    0.82 
   2  -4  10    8.40    0.38 
   2  -4  10    8.90    0.39 
   2  -4  11    5.70    0.22 
   2  -3 -10    0.31    0.39 
   2  -3 -10    0.30    0.41 
   2  -3 -10    0.30    0.42 
   2  -3  -9   23.26    0.92 
   2  -3  -9   30.35    0.95 
   2  -3  -9   25.96    1.21 
   2  -3  -9   27.49    0.97 
   2  -3  -8    2.35    0.79 
   2  -3  -8    3.22    0.49 
   2  -3  -8    3.05    0.62 
   2  -3  -8    3.34    0.49 
   2  -3  -7   55.57    1.64 
   2  -3  -7   49.17    1.91 
   2  -3  -6   31.85    1.17 
   2  -3  -6   33.44    1.09 
   2  -3  -5    8.47    0.64 
   2  -3  -5    7.74    0.56 
   2  -3  -5    6.76    0.72 
   2  -3  -4    6.24    0.63 
   2  -3  -4    7.76    0.58 
   2  -3  -4    7.40    0.46 
   2  -3  -3   72.19    1.59 
   2  -3  -3   89.06    1.46 
   2  -3  -2   13.16    0.54 
   2  -3  -1   68.88    1.01 
   2  -3   0   91.48    1.59 
   2  -3   0   68.46    1.18 
   2  -3   1   12.21    1.11 
   2  -3   1   12.00    1.13 
   2  -3   2  357.11    2.97 
   2  -3   2  333.05    2.46 
   2  -3   2  369.38    3.33 
   2  -3   2  373.16    3.35 
   2  -3   2  206.71    3.37 
   2  -3   3  173.67    2.51 
   2  -3   3  197.40    3.01 
   2  -3   3  180.60    2.72 
   2  -3   3  240.47    3.26 
   2  -3   3  193.61    2.61 
   2  -3   3  234.53    3.11 
   2  -3   3  205.42    2.99 
   2  -3   3  244.70    3.13 
   2  -3   3  204.61    2.99 
   2  -3   4   38.18    0.91 
   2  -3   4   45.57    1.32 
   2  -3   4   37.09    1.09 
   2  -3   4   37.35    1.01 
   2  -3   4   39.27    1.03 
   2  -3   4   44.92    1.26 
   2  -3   4   39.23    1.04 
   2  -3   4   43.07    1.24 
   2  -3   4   40.45    1.04 
   2  -3   4   43.07    1.19 
   2  -3   4   42.32    1.14 
   2  -3   5    3.82    0.37 
   2  -3   5    3.33    0.35 
   2  -3   5    4.38    0.57 
   2  -3   5    4.11    0.44 
   2  -3   5    4.29    0.49 
   2  -3   5    3.62    0.54 
   2  -3   5    3.59    0.54 
   2  -3   5    4.03    0.44 
   2  -3   5    3.98    0.49 
   2  -3   5    3.87    0.49 
   2  -3   6   13.28    0.74 
   2  -3   6   13.92    0.80 
   2  -3   6   12.88    0.74 
   2  -3   6   14.23    0.83 
   2  -3   6   13.12    0.58 
   2  -3   6   13.41    0.57 
   2  -3   6   14.85    0.83 
   2  -3   6   14.19    0.82 
   2  -3   6   11.69    0.71 
   2  -3   6   13.65    0.75 
   2  -3   6   12.78    0.72 
   2  -3   6   11.42    0.68 
   2  -3   7   65.15    1.58 
   2  -3   7   71.04    1.81 
   2  -3   7   62.15    1.66 
   2  -3   7   72.31    1.78 
   2  -3   7   67.88    1.33 
   2  -3   7   67.11    1.29 
   2  -3   7   57.41    1.68 
   2  -3   7   64.34    1.69 
   2  -3   7   66.57    1.64 
   2  -3   7   61.23    1.48 
   2  -3   7   66.08    1.30 
   2  -3   8   87.17    1.52 
   2  -3   8   75.02    1.22 
   2  -3   8   91.17    1.53 
   2  -3   8   86.79    1.80 
   2  -3   8   83.03    1.33 
   2  -3   8   89.59    1.54 
   2  -3   8   84.92    1.73 
   2  -3   8   89.75    1.99 
   2  -3   8   84.57    2.05 
   2  -3   8   88.06    1.96 
   2  -3   8   80.51    1.74 
   2  -3   8   87.22    1.99 
   2  -3   8   91.28    1.98 
   2  -3   8   77.12    1.90 
   2  -3   9   25.10    0.77 
   2  -3   9   25.26    0.72 
   2  -3   9   24.42    1.02 
   2  -3   9   24.02    1.02 
   2  -3   9   25.56    0.77 
   2  -3  10    7.04    0.57 
   2  -3  10    8.39    0.42 
   2  -3  10    6.73    0.57 
   2  -3  10    7.62    0.44 
   2  -3  10    7.34    0.43 
   2  -3  11   21.06    0.49 
   2  -2 -11    3.61    0.43 
   2  -2 -11    3.61    0.43 
   2  -2 -11    3.60    0.42 
   2  -2 -10   10.75    0.59 
   2  -2 -10   11.04    0.66 
   2  -2 -10    9.61    0.64 
   2  -2  -9   23.28    0.89 
   2  -2  -9   22.07    0.84 
   2  -2  -9   21.78    1.10 
   2  -2  -9   23.45    0.89 
   2  -2  -8  251.16    3.08 
   2  -2  -8  244.20    3.76 
   2  -2  -8  195.04    3.60 
   2  -2  -8  196.73    3.63 
   2  -2  -8  231.96    3.67 
   2  -2  -7    2.02    0.66 
   2  -2  -7    1.89    0.62 
   2  -2  -7    1.52    0.53 
   2  -2  -7    1.65    0.48 
   2  -2  -7    1.17    0.45 
   2  -2  -7    1.51    0.46 
   2  -2  -6   55.03    1.60 
   2  -2  -6   55.02    1.58 
   2  -2  -6   59.85    1.75 
   2  -2  -6   61.55    1.50 
   2  -2  -6   61.51    1.50 
   2  -2  -5   14.79    0.78 
   2  -2  -5   21.58    0.80 
   2  -2  -5   18.69    0.74 
   2  -2  -5   18.07    0.88 
   2  -2  -5   18.04    0.73 
   2  -2  -4    0.35    0.29 
   2  -2  -4    0.34    0.37 
   2  -2  -4    0.43    0.28 
   2  -2  -4    0.03    0.38 
   2  -2  -4    0.21    0.29 
   2  -2  -3  248.21    2.81 
   2  -2  -2  182.19    1.97 
   2  -2  -2  175.38    1.96 
   2  -2   0  529.85    5.37 
   2  -2   1  151.05    1.79 
   2  -2   1  154.54    2.08 
   2  -2   2  675.45    6.57 
   2  -2   2  662.41    6.30 
   2  -2   2  668.88    6.59 
   2  -2   2  694.44    6.64 
   2  -2   2  687.77    6.65 
   2  -2   3   34.89    0.99 
   2  -2   3   30.75    0.90 
   2  -2   3   34.70    0.87 
   2  -2   3   30.66    0.92 
   2  -2   3   31.51    0.93 
   2  -2   3   27.91    0.88 
   2  -2   3   27.45    0.78 
   2  -2   3   30.33    0.99 
   2  -2   4  361.44    3.91 
   2  -2   4  353.34    4.23 
   2  -2   4  340.56    4.00 
   2  -2   4  359.31    4.24 
   2  -2   4  356.89    4.23 
   2  -2   4  372.90    4.41 
   2  -2   5  106.52    1.65 
   2  -2   5  101.50    1.78 
   2  -2   5   85.67    1.85 
   2  -2   5   92.30    1.65 
   2  -2   5  110.54    1.96 
   2  -2   5  107.87    1.94 
   2  -2   5  118.28    2.10 
   2  -2   5  109.44    2.06 
   2  -2   5  100.27    1.89 
   2  -2   5  103.79    2.02 
   2  -2   6   18.57    0.82 
   2  -2   6   20.03    0.70 
   2  -2   6   20.17    0.79 
   2  -2   6   16.82    0.89 
   2  -2   6   17.97    0.72 
   2  -2   6   20.22    0.86 
   2  -2   6   21.39    0.89 
   2  -2   6   19.86    0.87 
   2  -2   6   22.27    0.94 
   2  -2   6   13.92    0.86 
   2  -2   6   22.56    0.93 
   2  -2   6   17.35    0.93 
   2  -2   7    3.46    0.46 
   2  -2   7    3.51    0.40 
   2  -2   7    1.87    0.50 
   2  -2   7    3.24    0.47 
   2  -2   7    3.29    0.42 
   2  -2   7    3.47    0.49 
   2  -2   7    4.12    0.52 
   2  -2   7    2.94    0.46 
   2  -2   7    3.41    0.46 
   2  -2   7    3.48    0.46 
   2  -2   7    3.50    0.53 
   2  -2   7    3.97    0.50 
   2  -2   8  463.57    5.20 
   2  -2   8  503.68    6.22 
   2  -2   8  496.87    6.03 
   2  -2   8  465.81    5.86 
   2  -2   8  509.64    6.04 
   2  -2   8  484.19    5.59 
   2  -2   8  502.11    5.37 
   2  -2   8  476.84    5.45 
   2  -2   8  501.23    6.08 
   2  -2   8  492.96    6.01 
   2  -2   8  490.71    6.00 
   2  -2   8  481.93    5.20 
   2  -2   8  475.02    5.73 
   2  -2   8  502.22    6.05 
   2  -2   9   24.60    0.75 
   2  -2   9   23.73    1.04 
   2  -2   9   24.42    0.79 
   2  -2   9   23.54    0.78 
   2  -2   9   22.42    0.95 
   2  -2   9   23.05    1.02 
   2  -2   9   23.82    1.00 
   2  -2   9   24.56    1.02 
   2  -2   9   24.20    0.69 
   2  -2  10   21.81    0.66 
   2  -2  10   19.17    0.83 
   2  -2  10   19.21    0.91 
   2  -2  10   21.81    0.66 
   2  -2  10   20.85    0.67 
   2  -2  10   20.24    0.69 
   2  -2  11    0.14    0.21 
   2  -2  11    0.00    0.19 
   2  -2  11    0.00    0.21 
   2  -2  11    0.05    0.21 
   2  -1 -11    1.42    0.38 
   2  -1 -11    1.33    1.21 
   2  -1 -11    1.57    0.39 
   2  -1 -11    2.06    0.34 
   2  -1 -11    1.70    0.38 
   2  -1 -11    1.20    1.21 
   2  -1 -10    0.50    0.44 
   2  -1 -10    0.53    0.44 
   2  -1 -10    0.15    0.51 
   2  -1 -10    0.27    0.42 
   2  -1 -10    0.36    0.56 
   2  -1 -10    0.24    0.51 
   2  -1 -10   -0.10    0.50 
   2  -1  -9  225.22    3.05 
   2  -1  -9  223.87    3.05 
   2  -1  -9  214.69    2.87 
   2  -1  -9  225.09    3.63 
   2  -1  -9  211.12    3.82 
   2  -1  -9  206.78    3.83 
   2  -1  -9  232.07    3.73 
   2  -1  -9  208.24    3.62 
   2  -1  -8  159.56    2.89 
   2  -1  -8  149.83    3.04 
   2  -1  -8  157.61    3.22 
   2  -1  -8  157.24    3.24 
   2  -1  -8  177.39    3.07 
   2  -1  -8  168.08    2.33 
   2  -1  -8  172.06    2.97 
   2  -1  -8  165.02    3.43 
   2  -1  -8  138.64    2.90 
   2  -1  -8  140.34    2.91 
   2  -1  -7   94.97    1.96 
   2  -1  -7   84.52    2.10 
   2  -1  -7   86.02    2.23 
   2  -1  -7   95.57    2.06 
   2  -1  -7   84.88    2.22 
   2  -1  -7   92.06    1.53 
   2  -1  -7   82.40    1.99 
   2  -1  -7   84.25    2.02 
   2  -1  -7   84.61    2.02 
   2  -1  -6   26.35    1.02 
   2  -1  -6   27.85    1.05 
   2  -1  -6   27.24    1.08 
   2  -1  -6   25.84    1.04 
   2  -1  -6   29.04    0.96 
   2  -1  -6   24.31    1.09 
   2  -1  -6   24.07    1.09 
   2  -1  -5    0.50    0.34 
   2  -1  -5    0.62    0.34 
   2  -1  -5    0.93    0.42 
   2  -1  -5    0.72    0.30 
   2  -1  -5    0.69    0.43 
   2  -1  -5    0.47    0.39 
   2  -1  -4   65.50    1.30 
   2  -1  -4   63.39    1.28 
   2  -1  -4   65.45    1.18 
   2  -1  -3  230.40    2.77 
   2  -1  -3  231.18    2.76 
   2  -1  -2  726.34    7.01 
   2  -1  -2  733.59    7.00 
   2  -1   0    1.21    0.20 
   2  -1   1  541.95    5.20 
   2  -1   1  478.34    5.09 
   2  -1   2    5.01    0.38 
   2  -1   2    5.05    0.40 
   2  -1   2    6.60    0.48 
   2  -1   2    5.53    0.40 
   2  -1   2    5.31    0.40 
   2  -1   2    4.76    0.48 
   2  -1   3  419.61    4.60 
   2  -1   3  382.10    4.54 
   2  -1   3  388.50    4.52 
   2  -1   3  444.88    4.73 
   2  -1   3  401.18    4.65 
   2  -1   3  454.68    4.50 
   2  -1   3  397.99    4.45 
   2  -1   3  401.87    4.46 
   2  -1   4   24.43    0.88 
   2  -1   4   23.12    0.86 
   2  -1   4   20.64    0.60 
   2  -1   4   23.59    0.77 
   2  -1   4   23.30    0.77 
   2  -1   4   24.01    0.93 
   2  -1   4   23.05    0.84 
   2  -1   5   14.32    0.75 
   2  -1   5   15.64    0.74 
   2  -1   5   15.79    0.62 
   2  -1   5   15.01    0.73 
   2  -1   5   14.54    0.75 
   2  -1   5   13.44    0.53 
   2  -1   5   15.04    0.67 
   2  -1   5   15.47    0.68 
   2  -1   5   15.50    0.80 
   2  -1   5   15.13    0.67 
   2  -1   6   13.12    0.64 
   2  -1   6   12.84    0.72 
   2  -1   6   13.79    0.70 
   2  -1   6   12.97    0.58 
   2  -1   6   13.38    0.59 
   2  -1   6   12.81    0.52 
   2  -1   6   12.40    0.67 
   2  -1   6   11.17    0.64 
   2  -1   6   12.83    0.69 
   2  -1   6   12.15    0.54 
   2  -1   6   13.16    0.75 
   2  -1   7   26.80    0.75 
   2  -1   7   28.44    0.98 
   2  -1   7   31.01    1.09 
   2  -1   7   28.55    1.05 
   2  -1   7   30.91    1.16 
   2  -1   7   30.84    1.08 
   2  -1   7   30.77    0.86 
   2  -1   7   29.10    0.86 
   2  -1   7   27.45    0.92 
   2  -1   7   28.38    1.02 
   2  -1   7   29.05    1.03 
   2  -1   7   29.59    0.79 
   2  -1   7   29.62    1.05 
   2  -1   7   24.15    1.11 
   2  -1   8  325.47    3.75 
   2  -1   8  338.56    3.91 
   2  -1   8  338.52    3.96 
   2  -1   8  348.48    4.54 
   2  -1   8  318.71    4.29 
   2  -1   8  341.68    4.52 
   2  -1   8  329.45    4.44 
   2  -1   8  330.61    4.44 
   2  -1   8  326.23    4.38 
   2  -1   8  312.29    3.74 
   2  -1   9    0.67    0.36 
   2  -1   9    0.91    0.32 
   2  -1   9    0.78    0.28 
   2  -1   9    0.85    0.30 
   2  -1   9    0.73    0.32 
   2  -1   9    0.74    0.38 
   2  -1   9    0.79    0.38 
   2  -1   9    0.92    0.34 
   2  -1   9    0.61    0.43 
   2  -1  10   15.62    0.85 
   2  -1  10   17.20    0.59 
   2  -1  10   17.54    0.60 
   2  -1  10   16.19    0.82 
   2  -1  10   15.61    0.59 
   2  -1  11    8.50    0.57 
   2  -1  11    9.33    0.40 
   2  -1  11    9.50    0.40 
   2  -1  12    3.41    0.21 
   2  -1  12    3.12    0.19 
   2   0 -11   13.05    0.57 
   2   0 -11   13.43    0.58 
   2   0 -11   12.82    0.61 
   2   0 -11   11.14    1.20 
   2   0 -11   10.78    1.22 
   2   0 -10   37.23    1.51 
   2   0 -10   36.89    1.51 
   2   0 -10   34.77    1.35 
   2   0 -10   33.60    1.34 
   2   0 -10   34.78    1.02 
   2   0 -10   33.16    1.00 
   2   0 -10   38.40    1.04 
   2   0 -10   35.05    1.30 
   2   0 -10   33.27    1.03 
   2   0  -9   19.17    0.82 
   2   0  -9   19.64    1.28 
   2   0  -9   20.36    1.28 
   2   0  -9   20.62    1.11 
   2   0  -9   21.20    0.83 
   2   0  -9   20.94    0.82 
   2   0  -9   19.29    1.24 
   2   0  -9   19.52    1.22 
   2   0  -9   19.52    1.07 
   2   0  -8   85.10    2.01 
   2   0  -8   79.12    1.46 
   2   0  -8   86.92    1.62 
   2   0  -8   89.17    1.62 
   2   0  -8   80.92    1.98 
   2   0  -8   83.87    2.34 
   2   0  -8   84.08    2.36 
   2   0  -8   89.05    2.09 
   2   0  -8   82.49    2.23 
   2   0  -8   73.75    2.10 
   2   0  -8   72.51    2.09 
   2   0  -8   80.42    2.14 
   2   0  -8   79.76    2.24 
   2   0  -7    3.99    0.43 
   2   0  -7    3.21    0.59 
   2   0  -7    4.09    0.66 
   2   0  -7    3.98    0.61 
   2   0  -7    3.56    0.73 
   2   0  -7    4.49    0.62 
   2   0  -7    3.62    0.69 
   2   0  -7    4.12    0.58 
   2   0  -7    3.95    0.73 
   2   0  -7    3.99    0.74 
   2   0  -7    4.55    0.56 
   2   0  -6    3.05    0.51 
   2   0  -6    3.13    0.52 
   2   0  -6    3.84    0.61 
   2   0  -6    3.92    0.51 
   2   0  -6    2.87    0.55 
   2   0  -6    3.81    0.50 
   2   0  -6    4.00    0.64 
   2   0  -6    3.34    0.58 
   2   0  -6    3.47    0.45 
   2   0  -5   -0.07    0.37 
   2   0  -5   -0.06    0.39 
   2   0  -5    0.01    0.33 
   2   0  -5    0.16    0.31 
   2   0  -5    0.30    0.34 
   2   0  -5   -0.04    0.43 
   2   0  -5    0.10    0.39 
   2   0  -4   19.49    0.63 
   2   0  -4   18.48    0.62 
   2   0  -4   17.55    0.64 
   2   0  -4   17.18    0.76 
   2   0  -4   16.25    0.74 
   2   0  -3  163.99    1.96 
   2   0  -3  159.29    1.98 
   2   0  -3  162.06    1.75 
   2   0   1  194.23    2.47 
   2   0   1  183.96    2.09 
   2   0   1  184.88    2.09 
   2   0   1  201.00    2.23 
   2   0   1  199.05    2.23 
   2   0   2    5.23    0.44 
   2   0   2    4.61    0.30 
   2   0   2    4.33    0.30 
   2   0   2    5.17    0.33 
   2   0   2    5.01    0.31 
   2   0   2    5.32    0.40 
   2   0   3  585.14    6.44 
   2   0   3  587.43    6.32 
   2   0   3  622.08    6.11 
   2   0   3  591.65    6.11 
   2   0   3  621.89    6.24 
   2   0   3  572.99    5.91 
   2   0   3  564.98    5.91 
   2   0   4   20.62    0.87 
   2   0   4   21.47    0.85 
   2   0   4   21.07    0.72 
   2   0   4   20.50    0.70 
   2   0   4   19.01    0.64 
   2   0   4   19.55    0.65 
   2   0   4   20.11    0.74 
   2   0   4   21.37    0.80 
   2   0   5    0.41    0.44 
   2   0   5    0.57    0.43 
   2   0   5    0.35    0.42 
   2   0   5    0.31    0.30 
   2   0   5    0.06    0.30 
   2   0   5    0.16    0.28 
   2   0   5    0.42    0.39 
   2   0   5    0.17    0.38 
   2   0   5    0.40    0.42 
   2   0   5    0.83    0.48 
   2   0   6   20.11    0.82 
   2   0   6   21.08    0.83 
   2   0   6   19.46    0.67 
   2   0   6   18.84    0.75 
   2   0   6   19.10    0.75 
   2   0   6   19.86    0.87 
   2   0   6   18.98    0.79 
   2   0   6   20.63    0.94 
   2   0   6   19.62    0.76 
   2   0   7    0.47    0.29 
   2   0   7    0.08    0.42 
   2   0   7    0.34    0.32 
   2   0   7    0.61    0.30 
   2   0   7    0.62    0.30 
   2   0   7    0.50    0.36 
   2   0   7    0.77    0.33 
   2   0   7    0.84    0.35 
   2   0   7    0.41    0.44 
   2   0   7    0.44    0.44 
   2   0   7    0.86    0.44 
   2   0   7    0.41    0.42 
   2   0   8    0.21    0.31 
   2   0   8    0.36    0.44 
   2   0   8    0.28    0.44 
   2   0   8    0.27    0.32 
   2   0   8    0.12    0.27 
   2   0   8    0.26    0.28 
   2   0   8   -0.14    0.29 
   2   0   8    0.28    0.50 
   2   0   8    0.09    0.47 
   2   0   8    0.35    0.40 
   2   0   8    0.24    0.35 
   2   0   8    0.18    0.35 
   2   0   8    0.19    0.39 
   2   0   8    0.49    0.44 
   2   0   8    0.85    0.44 
   2   0   9   11.87    0.61 
   2   0   9   12.68    0.71 
   2   0   9   12.60    0.84 
   2   0   9   11.77    0.72 
   2   0   9   11.97    0.54 
   2   0   9   13.69    0.64 
   2   0   9   11.17    0.78 
   2   0   9   12.03    0.73 
   2   0   9   13.28    0.76 
   2   0   9   12.17    0.79 
   2   0   9   13.26    0.82 
   2   0   9   12.52    0.56 
   2   0  10   36.86    1.21 
   2   0  10   35.41    0.91 
   2   0  10   34.95    1.19 
   2   0  10   35.32    1.21 
   2   0  10   37.79    0.86 
   2   0  11    0.01    0.24 
   2   0  11    0.20    0.28 
   2   0  11    0.24    0.28 
   2   0  11    0.24    0.23 
   2   1 -12    0.21    0.18 
   2   1 -11   22.98    0.69 
   2   1 -11   20.17    0.68 
   2   1 -10    2.12    0.43 
   2   1 -10    1.80    0.45 
   2   1 -10    1.33    0.60 
   2   1 -10    1.80    0.67 
   2   1 -10    1.57    0.62 
   2   1 -10    1.80    0.42 
   2   1 -10    1.53    0.56 
   2   1 -10    2.22    0.48 
   2   1  -9    0.69    0.47 
   2   1  -9    0.59    0.61 
   2   1  -9    0.91    0.69 
   2   1  -9    0.79    0.66 
   2   1  -9    0.93    0.44 
   2   1  -9    0.79    0.44 
   2   1  -9    0.56    0.43 
   2   1  -9    0.38    0.68 
   2   1  -9    0.41    0.57 
   2   1  -8   14.01    0.94 
   2   1  -8   13.53    1.09 
   2   1  -8   13.16    1.07 
   2   1  -8   14.99    0.97 
   2   1  -8   14.39    0.71 
   2   1  -8   14.40    0.71 
   2   1  -8   14.54    0.74 
   2   1  -8   13.70    1.08 
   2   1  -8   13.52    1.07 
   2   1  -8   11.86    0.99 
   2   1  -8   11.99    0.93 
   2   1  -8   12.08    0.97 
   2   1  -8   11.74    0.87 
   2   1  -7    9.65    0.84 
   2   1  -7    8.35    0.81 
   2   1  -7    9.77    0.58 
   2   1  -7    9.86    0.59 
   2   1  -7    9.32    0.89 
   2   1  -7    9.14    0.87 
   2   1  -7   10.20    0.78 
   2   1  -7    8.90    0.85 
   2   1  -7   10.00    0.92 
   2   1  -7    9.75    0.75 
   2   1  -7    9.05    0.72 
   2   1  -6   79.46    2.01 
   2   1  -6   77.97    1.99 
   2   1  -6   85.85    1.40 
   2   1  -6   84.80    1.40 
   2   1  -6   83.44    1.74 
   2   1  -6   84.81    1.79 
   2   1  -6   74.67    1.81 
   2   1  -6   90.97    1.97 
   2   1  -6   77.21    1.84 
   2   1  -6   74.83    1.81 
   2   1  -6   86.32    1.81 
   2   1  -5    4.80    0.50 
   2   1  -5    4.90    0.48 
   2   1  -5    4.94    0.52 
   2   1  -5    3.75    0.58 
   2   1  -5    3.72    0.58 
   2   1  -5    3.59    0.49 
   2   1  -5    3.52    0.53 
   2   1  -4    5.68    0.46 
   2   1  -4    5.53    0.48 
   2   1  -4    3.69    0.42 
   2   1  -4    4.31    0.41 
   2   1  -4    5.42    0.47 
   2   1  -3   36.35    0.79 
   2   1  -3   36.88    0.86 
   2   1  -2  504.65    4.72 
   2   1  -2  459.55    4.70 
   2   1  -1   43.67    0.46 
   2   1  -1   41.03    0.71 
   2   1   0 1533.00   13.39 
   2   1   0 1449.73   12.96 
   2   1   1   50.11    0.85 
   2   1   1   49.94    0.80 
   2   1   1   50.79    0.82 
   2   1   2   95.10    1.20 
   2   1   2   86.69    1.49 
   2   1   2   92.01    1.25 
   2   1   2   89.72    1.21 
   2   1   2   81.31    1.01 
   2   1   2   81.04    1.01 
   2   1   3  229.43    3.09 
   2   1   3  247.64    2.97 
   2   1   3  239.33    2.85 
   2   1   3  241.21    3.24 
   2   1   3  241.40    2.81 
   2   1   3  229.67    3.13 
   2   1   3  227.64    3.00 
   2   1   4  371.87    4.13 
   2   1   4  355.88    3.97 
   2   1   4  356.53    3.97 
   2   1   4  362.90    4.42 
   2   1   4  376.16    4.37 
   2   1   4  368.91    4.27 
   2   1   4  374.87    4.22 
   2   1   4  382.37    4.17 
   2   1   5  145.31    2.49 
   2   1   5  143.91    1.85 
   2   1   5  145.40    1.86 
   2   1   5  148.01    2.21 
   2   1   5  149.35    2.11 
   2   1   5  144.74    2.10 
   2   1   5  143.54    2.09 
   2   1   5  144.52    2.54 
   2   1   5  146.99    2.26 
   2   1   5  145.04    2.31 
   2   1   5  151.32    2.37 
   2   1   6  142.20    2.56 
   2   1   6  141.32    2.13 
   2   1   6  147.41    1.94 
   2   1   6  145.70    1.95 
   2   1   6  142.76    2.46 
   2   1   6  145.47    2.33 
   2   1   6  145.94    2.17 
   2   1   6  146.63    2.27 
   2   1   6  145.18    2.26 
   2   1   6  149.26    2.46 
   2   1   6  144.02    2.39 
   2   1   6  147.27    2.59 
   2   1   6  149.42    2.37 
   2   1   7  105.44    2.15 
   2   1   7  100.52    1.70 
   2   1   7  100.37    1.60 
   2   1   7  101.00    1.61 
   2   1   7  105.11    2.05 
   2   1   7   96.87    1.92 
   2   1   7   97.42    1.93 
   2   1   7  112.80    2.33 
   2   1   7  107.22    1.77 
   2   1   7   99.32    1.93 
   2   1   7  100.22    1.94 
   2   1   7  101.84    2.01 
   2   1   7  107.18    2.14 
   2   1   7  104.41    2.04 
   2   1   7  102.06    2.04 
   2   1   7   93.48    1.54 
   2   1   8   12.28    0.55 
   2   1   8   13.05    0.82 
   2   1   8   13.20    0.78 
   2   1   8   13.64    0.85 
   2   1   8   12.05    0.72 
   2   1   8   11.60    0.71 
   2   1   8   12.91    0.57 
   2   1   8    9.71    0.65 
   2   1   8   11.03    0.60 
   2   1   8   11.68    0.60 
   2   1   8   11.99    0.71 
   2   1   8   12.97    0.86 
   2   1   8   10.61    0.51 
   2   1   8   13.29    0.62 
   2   1   8   12.63    0.81 
   2   1   8   10.80    0.80 
   2   1   9  171.06    2.28 
   2   1   9  136.36    2.40 
   2   1   9  153.27    2.93 
   2   1   9  154.39    2.78 
   2   1   9  177.29    3.16 
   2   1   9  181.31    2.44 
   2   1   9  173.97    2.90 
   2   1   9  174.22    2.89 
   2   1   9  171.20    2.87 
   2   1   9  173.39    2.87 
   2   1   9  162.70    2.94 
   2   1   9  177.96    2.93 
   2   1   9  164.86    2.26 
   2   1  10    1.69    0.37 
   2   1  10    1.08    0.50 
   2   1  10    1.68    0.40 
   2   1  10    1.81    0.39 
   2   1  10    1.95    0.33 
   2   1  11    4.30    0.30 
   2   1  11    3.74    0.32 
   2   1  11    3.62    0.36 
   2   2 -11    7.17    0.47 
   2   2 -11    6.72    0.41 
   2   2 -10    0.55    0.70 
   2   2 -10    0.77    0.71 
   2   2 -10    0.32    0.40 
   2   2 -10    0.16    1.33 
   2   2 -10    0.39    0.40 
   2   2  -9   17.01    1.47 
   2   2  -9   14.75    1.47 
   2   2  -9   14.35    0.67 
   2   2  -9   14.04    0.68 
   2   2  -9   14.29    0.98 
   2   2  -9   12.68    1.10 
   2   2  -9   14.47    1.00 
   2   2  -9   16.44    0.76 
   2   2  -8   18.35    1.25 
   2   2  -8   23.69    1.20 
   2   2  -8   27.70    0.97 
   2   2  -8   17.09    1.09 
   2   2  -8   17.91    1.11 
   2   2  -8   24.63    0.85 
   2   2  -8   24.95    0.85 
   2   2  -8   26.05    1.22 
   2   2  -8   23.68    1.33 
   2   2  -8   19.86    1.07 
   2   2  -8   26.18    1.38 
   2   2  -8   24.60    1.36 
   2   2  -8   28.80    1.44 
   2   2  -8   26.28    1.24 
   2   2  -8   25.98    1.25 
   2   2  -7    2.05    0.58 
   2   2  -7    1.89    0.68 
   2   2  -7    2.11    0.64 
   2   2  -7    1.52    0.46 
   2   2  -7    2.64    0.65 
   2   2  -7    1.91    0.63 
   2   2  -7    2.94    0.66 
   2   2  -7    2.22    0.63 
   2   2  -7    2.58    0.52 
   2   2  -7    2.72    0.76 
   2   2  -7    1.50    0.60 
   2   2  -7    1.96    0.61 
   2   2  -6   10.72    0.84 
   2   2  -6   10.33    0.84 
   2   2  -6   10.82    0.76 
   2   2  -6    9.12    0.60 
   2   2  -6    9.77    0.73 
   2   2  -6   11.23    0.80 
   2   2  -6   10.28    0.82 
   2   2  -5   74.10    1.61 
   2   2  -5   69.64    1.30 
   2   2  -5   69.17    1.80 
   2   2  -5   70.90    1.59 
   2   2  -5   62.30    1.71 
   2   2  -5   78.12    1.67 
   2   2  -5   66.02    1.61 
   2   2  -4    1.25    0.33 
   2   2  -4    2.24    0.59 
   2   2  -4    3.67    0.47 
   2   2  -4    2.52    0.59 
   2   2  -4    1.97    0.59 
   2   2  -4    0.91    0.40 
   2   2  -4    2.61    0.70 
   2   2  -4    2.29    0.59 
   2   2  -3  122.55    1.80 
   2   2  -3  122.11    1.87 
   2   2  -3  124.06    1.97 
   2   2  -2  379.04    3.94 
   2   2  -2  394.87    4.25 
   2   2  -1   38.08    0.73 
   2   2  -1   45.86    1.26 
   2   2   0  184.83    1.99 
   2   2   0  184.56    2.15 
   2   2   1  366.08    3.55 
   2   2   1  359.21    3.39 
   2   2   1  375.17    3.81 
   2   2   1  377.09    3.75 
   2   2   2    0.30    0.16 
   2   2   2    0.27    0.16 
   2   2   2    0.22    0.23 
   2   2   2    0.38    0.35 
   2   2   2    0.36    0.23 
   2   2   2   -0.01    0.33 
   2   2   2    0.28    0.22 
   2   2   2    0.04    0.44 
   2   2   2    0.19    0.31 
   2   2   3    1.36    0.35 
   2   2   3    1.00    0.58 
   2   2   3    1.26    0.47 
   2   2   3    1.09    0.21 
   2   2   3    1.05    0.31 
   2   2   3    1.06    0.21 
   2   2   3    1.08    0.56 
   2   2   3    0.71    0.47 
   2   2   3    0.81    0.21 
   2   2   3    1.16    0.23 
   2   2   3    1.27    0.27 
   2   2   4    0.76    0.26 
   2   2   4    0.65    0.23 
   2   2   4    0.89    0.27 
   2   2   4    0.50    0.58 
   2   2   4    0.89    0.25 
   2   2   4    0.83    0.25 
   2   2   4    1.27    0.37 
   2   2   4    1.17    0.36 
   2   2   4    1.37    0.50 
   2   2   4    1.03    0.55 
   2   2   4    0.94    0.56 
   2   2   4    0.78    0.46 
   2   2   5   36.55    1.21 
   2   2   5   33.07    1.15 
   2   2   5   39.20    1.00 
   2   2   5   42.84    1.38 
   2   2   5   35.99    1.01 
   2   2   5   36.39    0.98 
   2   2   5   38.00    0.93 
   2   2   5   37.48    0.92 
   2   2   5   33.93    1.15 
   2   2   5   36.30    1.11 
   2   2   5   35.82    1.15 
   2   2   5   35.85    0.84 
   2   2   5   36.17    0.85 
   2   2   6   17.01    0.64 
   2   2   6   16.71    0.64 
   2   2   6   17.42    0.97 
   2   2   6   15.77    0.70 
   2   2   6   15.83    0.66 
   2   2   6   16.65    0.70 
   2   2   6   17.18    0.70 
   2   2   6   16.97    0.88 
   2   2   6   15.07    0.83 
   2   2   6   14.81    0.81 
   2   2   6   16.91    0.84 
   2   2   6   15.63    0.83 
   2   2   7    1.15    0.40 
   2   2   7    1.15    0.39 
   2   2   7    1.19    0.34 
   2   2   7    1.41    0.34 
   2   2   7    1.53    0.36 
   2   2   7    1.66    0.52 
   2   2   7    1.31    0.51 
   2   2   7    1.41    0.53 
   2   2   7    1.60    0.41 
   2   2   7    1.38    0.53 
   2   2   7    1.25    0.30 
   2   2   7    1.62    0.51 
   2   2   7    1.51    0.45 
   2   2   8   21.59    0.70 
   2   2   8   23.13    0.83 
   2   2   8   21.86    0.81 
   2   2   8   21.91    1.09 
   2   2   8   18.85    0.91 
   2   2   8   20.53    0.93 
   2   2   8   21.91    0.76 
   2   2   8   21.60    0.70 
   2   2   8   21.66    1.04 
   2   2   8   21.20    0.92 
   2   2   8   23.02    1.07 
   2   2   8   20.04    1.02 
   2   2   8   21.80    1.02 
   2   2   8   21.99    0.95 
   2   2   9    4.18    0.53 
   2   2   9    3.95    0.51 
   2   2   9    4.00    0.39 
   2   2   9    4.01    0.67 
   2   2   9    4.57    0.63 
   2   2   9    4.45    0.46 
   2   2   9    2.78    0.40 
   2   2   9    4.07    0.40 
   2   2   9    3.95    0.58 
   2   2   9    4.21    0.51 
   2   2  10    3.47    0.34 
   2   2  10    3.70    0.60 
   2   2  10    3.24    0.56 
   2   2  10    3.92    0.36 
   2   2  10    3.74    0.50 
   2   2  10    3.82    0.42 
   2   2  10    3.55    0.33 
   2   2  11    0.33    0.20 
   2   2  11    0.29    0.22 
   2   2  11   -0.04    0.27 
   2   3 -11   -0.34    0.28 
   2   3 -11   -0.11    0.29 
   2   3 -11   -0.18    0.29 
   2   3 -10    9.71    0.53 
   2   3 -10   11.78    0.65 
   2   3 -10   11.52    0.64 
   2   3  -9    4.14    0.46 
   2   3  -9    5.08    0.71 
   2   3  -9    4.05    0.69 
   2   3  -9    3.61    0.61 
   2   3  -9    0.87    1.41 
   2   3  -9    3.98    0.51 
   2   3  -9    2.67    0.64 
   2   3  -9    2.79    0.61 
   2   3  -9    2.57    0.71 
   2   3  -9    3.64    0.69 
   2   3  -8   85.68    2.02 
   2   3  -8   86.73    2.04 
   2   3  -8   74.85    1.52 
   2   3  -8   81.22    1.61 
   2   3  -8   73.10    2.22 
   2   3  -8   74.07    2.01 
   2   3  -8   72.15    1.99 
   2   3  -8   69.43    2.13 
   2   3  -8   69.49    2.14 
   2   3  -8   77.20    2.09 
   2   3  -7   41.78    1.15 
   2   3  -7   36.62    1.54 
   2   3  -7   36.81    1.50 
   2   3  -7   38.23    1.53 
   2   3  -7   38.36    1.45 
   2   3  -7   36.22    1.49 
   2   3  -7   34.92    1.47 
   2   3  -7   40.75    1.52 
   2   3  -7   39.53    1.48 
   2   3  -6   29.05    1.25 
   2   3  -6   28.37    1.21 
   2   3  -6   15.62    1.38 
   2   3  -6   33.59    1.31 
   2   3  -6   35.22    1.03 
   2   3  -6   26.12    1.16 
   2   3  -6   25.77    1.17 
   2   3  -6   31.80    1.25 
   2   3  -6   35.66    1.31 
   2   3  -6   16.80    1.55 
   2   3  -5   17.04    0.91 
   2   3  -5   12.45    1.01 
   2   3  -5   17.76    0.95 
   2   3  -5   16.82    0.73 
   2   3  -5   15.70    0.83 
   2   3  -5   12.83    0.83 
   2   3  -5   12.04    0.81 
   2   3  -5   16.95    0.72 
   2   3  -5    8.72    1.24 
   2   3  -4   11.88    0.80 
   2   3  -4   12.29    0.76 
   2   3  -4   12.13    0.59 
   2   3  -4   11.46    0.62 
   2   3  -4   12.02    0.73 
   2   3  -4    8.96    1.05 
   2   3  -4    7.94    0.67 
   2   3  -4    8.33    0.68 
   2   3  -3  267.07    3.61 
   2   3  -3  265.56    3.61 
   2   3  -3  337.15    3.85 
   2   3  -3  341.48    4.05 
   2   3  -3  257.57    4.40 
   2   3  -3  335.41    3.55 
   2   3  -3  344.45    3.67 
   2   3  -3  321.27    3.60 
   2   3  -2   26.02    0.69 
   2   3  -2   26.27    0.69 
   2   3  -2   24.64    0.77 
   2   3  -1  378.35    3.35 
   2   3  -1  379.11    3.46 
   2   3   0    8.58    0.59 
   2   3   0   10.48    0.49 
   2   3   0    8.76    0.64 
   2   3   0    9.94    0.53 
   2   3   1   16.31    0.50 
   2   3   1   16.05    0.81 
   2   3   1   16.42    0.65 
   2   3   1   16.37    0.72 
   2   3   2   27.26    1.11 
   2   3   2   26.18    0.69 
   2   3   2   27.69    0.61 
   2   3   2   29.46    0.72 
   2   3   2   26.56    0.76 
   2   3   2   27.93    0.87 
   2   3   2   26.67    0.75 
   2   3   2   24.67    1.00 
   2   3   2   26.82    0.84 
   2   3   2   26.14    0.83 
   2   3   3  145.42    2.05 
   2   3   3  142.39    2.03 
   2   3   3  135.72    1.81 
   2   3   3  143.52    1.93 
   2   3   3  140.87    2.12 
   2   3   3  146.26    1.95 
   2   3   3  144.37    2.46 
   2   3   3  157.91    2.36 
   2   3   3  146.10    2.10 
   2   3   3  148.69    1.94 
   2   3   3  147.89    1.93 
   2   3   3  134.71    2.42 
   2   3   3  139.34    2.13 
   2   3   3  146.68    2.54 
   2   3   4  123.99    2.26 
   2   3   4  124.69    1.86 
   2   3   4  130.42    1.89 
   2   3   4  118.39    1.64 
   2   3   4  125.38    1.75 
   2   3   4  128.32    2.02 
   2   3   4  127.14    1.77 
   2   3   4  129.35    2.32 
   2   3   4  135.95    2.37 
   2   3   4  129.51    2.05 
   2   3   4  123.68    2.29 
   2   3   4  126.34    2.03 
   2   3   4  131.02    1.93 
   2   3   4  132.16    1.75 
   2   3   4  136.06    2.51 
   2   3   4  127.46    2.04 
   2   3   5    0.77    0.44 
   2   3   5    0.90    0.45 
   2   3   5    0.93    0.34 
   2   3   5    0.82    0.34 
   2   3   5    0.72    0.27 
   2   3   5    0.92    0.40 
   2   3   5    0.09    0.55 
   2   3   5    1.24    0.44 
   2   3   5    1.41    0.48 
   2   3   5    0.49    0.25 
   2   3   5    0.45    0.24 
   2   3   5    0.79    0.45 
   2   3   5    0.48    0.40 
   2   3   6   52.96    1.48 
   2   3   6   50.50    1.37 
   2   3   6   54.15    1.18 
   2   3   6   53.95    1.18 
   2   3   6   50.96    1.43 
   2   3   6   51.10    1.01 
   2   3   6   54.18    1.51 
   2   3   6   54.10    1.54 
   2   3   6   54.58    1.29 
   2   3   6   54.51    1.67 
   2   3   6   51.53    1.32 
   2   3   7    7.94    0.57 
   2   3   7    8.01    0.57 
   2   3   7    6.33    0.58 
   2   3   7    8.08    0.75 
   2   3   7    7.17    0.58 
   2   3   7    7.29    0.46 
   2   3   7    7.55    0.73 
   2   3   7    7.52    0.73 
   2   3   7    7.74    0.67 
   2   3   7    8.16    0.63 
   2   3   7    8.63    0.74 
   2   3   8   40.81    1.09 
   2   3   8   38.98    1.08 
   2   3   8   28.79    1.22 
   2   3   8   31.09    1.18 
   2   3   8   30.41    1.28 
   2   3   8   35.97    1.35 
   2   3   8   39.34    1.36 
   2   3   8   40.96    1.40 
   2   3   8   38.26    1.27 
   2   3   8   35.54    0.87 
   2   3   8   36.43    0.91 
   2   3   9   28.31    1.09 
   2   3   9   29.60    0.81 
   2   3   9   29.13    1.17 
   2   3   9   30.54    1.24 
   2   3   9   29.74    0.93 
   2   3   9   29.17    0.93 
   2   3   9   26.24    0.76 
   2   3  10   19.81    0.91 
   2   3  10   18.03    0.96 
   2   3  10   21.55    0.64 
   2   3  10   21.63    0.61 
   2   3  10   19.95    0.85 
   2   3  10   16.08    0.70 
   2   3  10   16.51    0.70 
   2   3  11   -0.03    0.20 
   2   3  11    0.17    0.18 
   2   4 -11   10.24    0.35 
   2   4 -10   21.60    0.81 
   2   4 -10   23.09    0.67 
   2   4 -10   28.34    0.75 
   2   4 -10   28.25    0.76 
   2   4  -9   49.29    1.17 
   2   4  -9   46.96    1.15 
   2   4  -9   36.30    1.33 
   2   4  -9   34.47    1.32 
   2   4  -9   32.37    1.31 
   2   4  -9   39.41    1.07 
   2   4  -9   43.17    0.97 
   2   4  -9   41.21    1.01 
   2   4  -8    2.36    0.52 
   2   4  -8    1.92    0.49 
   2   4  -8    1.67    0.46 
   2   4  -8    2.67    0.58 
   2   4  -8    2.32    0.59 
   2   4  -8    3.20    0.93 
   2   4  -8    2.05    0.70 
   2   4  -8    1.87    0.55 
   2   4  -8    2.01    0.62 
   2   4  -8    1.26    0.57 
   2   4  -8    1.61    0.63 
   2   4  -8    2.23    0.63 
   2   4  -7   35.88    1.21 
   2   4  -7   34.60    1.18 
   2   4  -7   18.78    1.15 
   2   4  -7   28.28    1.25 
   2   4  -7   21.80    1.20 
   2   4  -7   19.48    1.17 
   2   4  -7   28.12    1.33 
   2   4  -7   20.77    1.73 
   2   4  -7   26.47    1.21 
   2   4  -7   23.06    1.26 
   2   4  -7   24.59    1.35 
   2   4  -7   21.66    1.35 
   2   4  -7   22.61    1.35 
   2   4  -7   27.95    0.97 
   2   4  -6   24.34    1.05 
   2   4  -6   25.01    1.06 
   2   4  -6   19.95    1.08 
   2   4  -6   15.18    0.99 
   2   4  -6   14.61    0.97 
   2   4  -6   21.57    1.18 
   2   4  -6   12.57    1.66 
   2   4  -6   19.25    1.04 
   2   4  -6   15.80    1.02 
   2   4  -6   19.35    1.16 
   2   4  -6   17.11    1.18 
   2   4  -6   17.09    1.19 
   2   4  -6   20.52    0.84 
   2   4  -5   30.27    1.08 
   2   4  -5   29.43    1.08 
   2   4  -5   24.73    1.10 
   2   4  -5   19.19    0.96 
   2   4  -5   18.51    0.94 
   2   4  -5   11.15    1.19 
   2   4  -5   10.76    1.37 
   2   4  -5   25.92    1.08 
   2   4  -5   22.28    1.01 
   2   4  -5   26.12    1.18 
   2   4  -5   22.34    0.92 
   2   4  -5   26.04    0.87 
   2   4  -4  101.80    1.66 
   2   4  -4  118.35    1.96 
   2   4  -4  116.01    1.94 
   2   4  -4   98.91    2.01 
   2   4  -4  103.91    2.22 
   2   4  -4   95.45    1.78 
   2   4  -4   93.00    1.81 
   2   4  -4  105.09    2.02 
   2   4  -4   88.99    1.96 
   2   4  -4   94.11    2.01 
   2   4  -3  115.65    2.30 
   2   4  -3  120.06    2.24 
   2   4  -3  132.36    1.93 
   2   4  -3  133.44    1.92 
   2   4  -3  108.69    1.84 
   2   4  -3  106.69    2.01 
   2   4  -3  117.79    1.94 
   2   4  -2 2114.94   17.91 
   2   4  -2 2006.57   18.19 
   2   4  -2 2145.15   18.77 
   2   4  -2 2181.57   18.40 
   2   4  -2 2056.67   18.00 
   2   4  -1   25.65    0.83 
   2   4  -1   26.52    0.79 
   2   4   0  207.27    2.54 
   2   4   0  204.72    2.76 
   2   4   1   90.56    1.51 
   2   4   1   89.19    1.35 
   2   4   1   87.73    2.00 
   2   4   1   95.52    2.11 
   2   4   1   84.05    1.71 
   2   4   1  103.10    1.59 
   2   4   1  101.04    1.95 
   2   4   2  111.60    1.92 
   2   4   2  117.49    2.08 
   2   4   2  111.55    1.94 
   2   4   2  111.41    2.01 
   2   4   2  112.91    1.54 
   2   4   2  110.35    2.25 
   2   4   2  117.15    2.33 
   2   4   2  114.23    1.70 
   2   4   3   16.77    0.68 
   2   4   3   17.60    0.77 
   2   4   3   18.14    0.70 
   2   4   3   16.19    0.88 
   2   4   3   17.71    0.78 
   2   4   3   18.27    0.55 
   2   4   3   17.92    0.95 
   2   4   3   17.92    0.95 
   2   4   3   17.54    0.68 
   2   4   3   19.82    0.68 
   2   4   3   16.36    0.59 
   2   4   4   96.66    1.75 
   2   4   4   98.24    1.69 
   2   4   4   99.76    1.71 
   2   4   4   95.02    1.51 
   2   4   4   93.67    1.65 
   2   4   4  102.76    1.94 
   2   4   4   93.34    1.65 
   2   4   4   97.52    2.02 
   2   4   4  100.98    1.44 
   2   4   4   98.66    2.11 
   2   4   4  101.87    1.92 
   2   4   4   85.79    1.74 
   2   4   4   91.84    2.15 
   2   4   5   52.14    1.39 
   2   4   5   52.27    1.27 
   2   4   5   54.00    1.21 
   2   4   5   53.35    1.21 
   2   4   5   52.86    1.08 
   2   4   5   55.46    1.53 
   2   4   5   51.67    0.99 
   2   4   5   53.01    1.57 
   2   4   5   55.68    1.46 
   2   4   5   51.57    1.38 
   2   4   5   49.76    1.60 
   2   4   6    2.64    0.50 
   2   4   6    2.66    0.50 
   2   4   6    2.88    0.47 
   2   4   6    3.18    0.48 
   2   4   6    3.22    0.42 
   2   4   6    2.79    0.59 
   2   4   6    1.94    0.56 
   2   4   6    3.36    0.58 
   2   4   6    2.90    0.63 
   2   4   6    2.08    0.41 
   2   4   6    2.69    0.35 
   2   4   7  102.85    2.23 
   2   4   7   98.83    2.03 
   2   4   7  100.43    1.64 
   2   4   7  104.39    2.31 
   2   4   7  105.26    2.30 
   2   4   7   98.11    1.84 
   2   4   7  105.67    1.85 
   2   4   7  105.15    1.85 
   2   4   8   28.89    0.93 
   2   4   8   28.93    0.93 
   2   4   8   29.93    1.22 
   2   4   8   27.45    0.80 
   2   4   8   27.18    0.91 
   2   4   8   27.61    1.01 
   2   4   9    3.07    0.58 
   2   4   9    3.25    0.42 
   2   4   9    3.23    0.36 
   2   4   9    3.11    0.46 
   2   4   9    3.21    0.45 
   2   4  10    1.60    0.44 
   2   4  10    1.28    0.34 
   2   4  10    1.74    0.35 
   2   4  10    1.41    0.28 
   2   4  10    1.68    0.26 
   2   4  10    1.42    0.30 
   2   5 -10    0.06    0.24 
   2   5 -10   -0.17    0.24 
   2   5  -9    5.20    0.43 
   2   5  -9    5.85    0.45 
   2   5  -9    4.34    0.38 
   2   5  -9    6.35    0.44 
   2   5  -9    5.90    0.49 
   2   5  -9    5.83    0.42 
   2   5  -8    5.93    0.54 
   2   5  -8    6.07    0.55 
   2   5  -8    6.09    0.56 
   2   5  -8    4.31    0.46 
   2   5  -8    6.67    0.56 
   2   5  -8    5.73    0.52 
   2   5  -7    2.98    0.53 
   2   5  -7    2.89    0.48 
   2   5  -7    4.40    0.59 
   2   5  -7    4.15    0.59 
   2   5  -7    4.32    0.62 
   2   5  -7    2.85    0.65 
   2   5  -7    3.38    0.59 
   2   5  -7    4.24    0.60 
   2   5  -6    0.54    0.58 
   2   5  -6    0.08    0.45 
   2   5  -6    0.21    0.42 
   2   5  -6   -0.06    0.50 
   2   5  -6   -0.12    0.69 
   2   5  -6   -0.01    0.51 
   2   5  -6    0.07    0.58 
   2   5  -6    0.18    0.63 
   2   5  -6    0.35    0.56 
   2   5  -6    0.18    0.48 
   2   5  -6   -0.31    0.62 
   2   5  -6    0.03    0.48 
   2   5  -6    0.23    0.55 
   2   5  -6    0.15    0.54 
   2   5  -5    4.99    0.54 
   2   5  -5    5.92    0.55 
   2   5  -5    6.39    0.65 
   2   5  -5    6.40    0.66 
   2   5  -5    5.56    0.84 
   2   5  -5    3.43    0.63 
   2   5  -5    4.48    0.67 
   2   5  -5    3.71    0.61 
   2   5  -5    5.56    0.78 
   2   5  -5    7.99    0.82 
   2   5  -5    5.92    1.24 
   2   5  -5    4.64    0.64 
   2   5  -5    4.03    0.71 
   2   5  -5    5.77    0.80 
   2   5  -5    5.30    0.67 
   2   5  -4    5.22    0.51 
   2   5  -4    6.56    0.52 
   2   5  -4    7.47    0.64 
   2   5  -4    7.32    0.64 
   2   5  -4    7.09    0.87 
   2   5  -4    6.76    0.64 
   2   5  -4    4.22    0.56 
   2   5  -4    6.29    0.74 
   2   5  -4    5.70    0.65 
   2   5  -4    6.93    0.79 
   2   5  -4    5.53    1.24 
   2   5  -4    5.25    0.63 
   2   5  -4    6.27    0.63 
   2   5  -3   42.56    2.21 
   2   5  -3   57.39    1.17 
   2   5  -3   58.14    1.24 
   2   5  -3   58.66    1.24 
   2   5  -3   69.00    1.71 
   2   5  -3   67.39    1.51 
   2   5  -3   55.96    1.77 
   2   5  -3   60.12    1.62 
   2   5  -3   53.60    1.12 
   2   5  -3   56.34    1.43 
   2   5  -3   63.64    1.54 
   2   5  -2   88.28    2.13 
   2   5  -2   79.65    1.74 
   2   5  -2   97.41    1.91 
   2   5  -2   91.55    1.70 
   2   5  -2   86.86    1.73 
   2   5  -2   76.80    1.32 
   2   5  -2   86.46    2.49 
   2   5  -1    1.14    0.40 
   2   5  -1    1.37    0.38 
   2   5  -1    1.05    0.55 
   2   5   0   17.69    0.67 
   2   5   0   17.22    0.73 
   2   5   0   16.50    1.02 
   2   5   0   17.05    1.06 
   2   5   0   16.64    0.83 
   2   5   1    1.00    0.38 
   2   5   1    1.01    0.44 
   2   5   1    1.22    0.45 
   2   5   1    0.60    0.38 
   2   5   1    0.84    0.40 
   2   5   1    0.05    0.64 
   2   5   1    0.87    0.32 
   2   5   1    0.86    0.59 
   2   5   1    0.81    0.47 
   2   5   1    0.80    0.46 
   2   5   2   16.20    0.80 
   2   5   2   16.44    0.79 
   2   5   2   15.25    0.68 
   2   5   2   15.95    0.81 
   2   5   2   16.19    0.87 
   2   5   2   15.37    0.81 
   2   5   2   20.35    0.81 
   2   5   2   17.69    0.61 
   2   5   2   15.76    0.94 
   2   5   2   15.83    0.98 
   2   5   2   16.07    0.84 
   2   5   2   18.72    0.58 
   2   5   3    6.24    0.59 
   2   5   3    6.46    0.57 
   2   5   3    6.45    0.57 
   2   5   3    6.60    0.63 
   2   5   3    5.98    0.54 
   2   5   3    6.06    0.61 
   2   5   3    5.59    0.52 
   2   5   3    6.21    0.62 
   2   5   3    5.59    0.47 
   2   5   3    6.00    0.41 
   2   5   3    5.77    0.70 
   2   5   3    5.96    0.71 
   2   5   3    6.71    0.57 
   2   5   3    6.00    0.37 
   2   5   4   60.79    1.59 
   2   5   4   56.00    1.21 
   2   5   4   59.74    1.57 
   2   5   4   58.93    1.16 
   2   5   4   57.85    1.72 
   2   5   4   56.49    1.64 
   2   5   4   58.12    1.08 
   2   5   5   13.43    0.68 
   2   5   5   13.80    0.87 
   2   5   5   13.42    0.63 
   2   5   5   13.89    0.84 
   2   5   5   12.71    0.54 
   2   5   5   13.87    0.94 
   2   5   5   13.41    0.91 
   2   5   5   12.85    0.54 
   2   5   5   15.24    0.62 
   2   5   5   13.40    0.55 
   2   5   6   94.16    1.61 
   2   5   6  108.12    1.87 
   2   5   6  109.18    1.89 
   2   5   6  100.68    1.73 
   2   5   6   97.72    2.16 
   2   5   6  104.46    2.31 
   2   5   6  111.69    2.41 
   2   5   6   86.74    1.65 
   2   5   6   96.02    1.63 
   2   5   6  104.98    1.63 
   2   5   6   97.63    1.76 
   2   5   6  102.29    2.27 
   2   5   7   -0.10    0.36 
   2   5   7    0.30    0.36 
   2   5   7   -0.40    0.50 
   2   5   7    0.05    0.40 
   2   5   7    0.16    0.41 
   2   5   7    0.06    0.34 
   2   5   7    0.26    0.31 
   2   5   7    0.17    0.22 
   2   5   8   18.46    0.66 
   2   5   8   17.68    0.92 
   2   5   8   17.86    0.74 
   2   5   8   16.87    0.73 
   2   5   8   15.10    0.62 
   2   5   8   13.81    0.53 
   2   5   9   21.68    0.91 
   2   5   9   19.62    0.64 
   2   5   9   19.88    0.73 
   2   5   9   20.71    0.74 
   2   5  10    1.71    0.32 
   2   5  10    2.18    0.33 
   2   6  -9    6.17    0.33 
   2   6  -8    0.12    0.35 
   2   6  -8   -0.02    0.29 
   2   6  -8    0.23    0.30 
   2   6  -8    0.51    0.32 
   2   6  -8   -0.04    0.30 
   2   6  -7    1.17    0.42 
   2   6  -7    0.66    0.37 
   2   6  -7    0.66    0.33 
   2   6  -7    1.24    0.42 
   2   6  -7    1.50    0.39 
   2   6  -7    1.27    0.46 
   2   6  -7    1.05    0.47 
   2   6  -6    0.23    0.34 
   2   6  -6    0.16    0.40 
   2   6  -6   -0.08    0.41 
   2   6  -6    0.15    0.41 
   2   6  -6    0.59    0.49 
   2   6  -6    0.19    0.46 
   2   6  -5    6.25    0.65 
   2   6  -5    8.35    0.71 
   2   6  -5    6.98    0.58 
   2   6  -5    8.04    0.64 
   2   6  -5    6.48    0.60 
   2   6  -5    6.48    0.58 
   2   6  -5    5.75    0.54 
   2   6  -5    5.04    0.78 
   2   6  -5    7.28    0.80 
   2   6  -4    9.86    0.99 
   2   6  -4   11.99    0.79 
   2   6  -4    8.38    0.55 
   2   6  -4    3.59    0.55 
   2   6  -4    4.72    0.60 
   2   6  -4    9.76    0.65 
   2   6  -4   10.45    0.64 
   2   6  -4    4.82    0.71 
   2   6  -4   11.04    0.98 
   2   6  -4   11.38    0.87 
   2   6  -3    0.18    0.68 
   2   6  -3    0.07    0.36 
   2   6  -3    0.24    0.39 
   2   6  -3    0.43    0.56 
   2   6  -3    0.38    0.38 
   2   6  -3    0.09    0.50 
   2   6  -3    0.95    0.69 
   2   6  -3    0.09    0.57 
   2   6  -3    0.37    0.49 
   2   6  -3    0.61    0.50 
   2   6  -2   14.61    0.91 
   2   6  -2   13.10    1.00 
   2   6  -2   13.13    0.83 
   2   6  -2   14.05    0.86 
   2   6  -2   14.69    0.77 
   2   6  -2   13.78    1.08 
   2   6  -2   13.63    0.68 
   2   6  -2   14.71    0.65 
   2   6  -1   20.75    0.71 
   2   6  -1   22.85    0.74 
   2   6  -1   16.95    1.13 
   2   6  -1   15.93    1.18 
   2   6  -1   20.39    1.22 
   2   6  -1   15.61    1.16 
   2   6  -1   18.29    0.99 
   2   6  -1   18.54    0.99 
   2   6  -1   23.13    0.97 
   2   6  -1   21.05    0.85 
   2   6  -1   20.93    0.76 
   2   6  -1   19.79    1.13 
   2   6  -1   19.30    0.91 
   2   6   0    4.51    0.73 
   2   6   0    3.49    0.68 
   2   6   0    3.75    0.66 
   2   6   0    4.54    0.71 
   2   6   0    5.80    0.48 
   2   6   0    5.25    0.46 
   2   6   0    4.75    0.50 
   2   6   0    3.84    0.74 
   2   6   0    6.29    0.70 
   2   6   0    5.11    0.66 
   2   6   0    4.02    0.64 
   2   6   1   -0.01    0.43 
   2   6   1    0.03    0.44 
   2   6   1    0.18    0.55 
   2   6   1   -0.05    0.36 
   2   6   1    0.09    0.35 
   2   6   1    0.13    0.58 
   2   6   1   -0.01    0.51 
   2   6   1    0.07    0.49 
   2   6   1    0.05    0.49 
   2   6   2    0.77    0.48 
   2   6   2    0.75    0.49 
   2   6   2    0.63    0.41 
   2   6   2    0.09    0.59 
   2   6   2    0.68    0.42 
   2   6   2    0.56    0.49 
   2   6   2    0.55    0.44 
   2   6   2    0.37    0.25 
   2   6   2    0.41    0.59 
   2   6   2    0.39    0.34 
   2   6   2    0.67    0.55 
   2   6   2    0.40    0.37 
   2   6   2    0.59    0.52 
   2   6   3    4.47    0.56 
   2   6   3    4.32    0.57 
   2   6   3    3.87    0.49 
   2   6   3    4.33    0.76 
   2   6   3    2.35    0.50 
   2   6   3    3.30    0.60 
   2   6   3    2.79    0.51 
   2   6   3    3.73    0.62 
   2   6   3    3.08    0.67 
   2   6   3    3.92    0.44 
   2   6   3    3.93    0.66 
   2   6   3    3.95    0.40 
   2   6   3    3.61    0.61 
   2   6   4  105.72    1.93 
   2   6   4  106.84    1.96 
   2   6   4  100.80    1.80 
   2   6   4   96.63    2.50 
   2   6   4  107.44    1.78 
   2   6   4  101.54    1.71 
   2   6   4  101.85    2.22 
   2   6   4  105.86    1.66 
   2   6   4  107.38    2.31 
   2   6   5    3.81    0.38 
   2   6   5    4.44    0.55 
   2   6   5    4.16    0.55 
   2   6   5    3.45    0.47 
   2   6   5    2.76    0.81 
   2   6   5    4.33    0.65 
   2   6   5    3.80    0.64 
   2   6   5    4.40    0.57 
   2   6   5    1.83    0.49 
   2   6   5    3.78    0.42 
   2   6   6   12.56    0.91 
   2   6   6   11.41    0.82 
   2   6   6   11.58    0.57 
   2   6   6   10.35    0.54 
   2   6   6   11.64    0.63 
   2   6   7    0.94    0.48 
   2   6   7    0.38    0.44 
   2   6   7    0.13    0.35 
   2   6   7    0.23    0.34 
   2   6   7    0.59    0.25 
   2   6   8    5.00    0.60 
   2   6   8    5.70    0.47 
   2   6   8    5.86    0.47 
   2   6   9    2.79    0.35 
   2   6   9    3.54    0.35 
   2   7  -8    0.81    0.23 
   2   7  -7    0.96    0.35 
   2   7  -6    9.10    0.49 
   2   7  -6    8.98    0.56 
   2   7  -6    5.69    0.43 
   2   7  -6    6.76    0.45 
   2   7  -6    7.32    0.52 
   2   7  -5    3.25    0.58 
   2   7  -5    5.12    0.51 
   2   7  -5    6.04    0.56 
   2   7  -5    5.76    0.56 
   2   7  -5    3.84    0.43 
   2   7  -5    4.12    0.43 
   2   7  -5    4.80    0.53 
   2   7  -4    8.69    0.60 
   2   7  -4    9.35    0.66 
   2   7  -4   10.07    0.67 
   2   7  -4    7.54    0.58 
   2   7  -4    6.89    0.73 
   2   7  -4    6.01    0.71 
   2   7  -3   13.71    0.72 
   2   7  -3   13.86    0.74 
   2   7  -3   10.58    0.93 
   2   7  -3   10.67    0.84 
   2   7  -3   12.48    0.74 
   2   7  -2    0.46    0.48 
   2   7  -2    0.02    0.62 
   2   7  -2    0.36    0.57 
   2   7  -2    0.37    0.58 
   2   7  -2    0.53    0.63 
   2   7  -2    0.58    0.51 
   2   7  -2    0.34    0.46 
   2   7  -2    0.46    0.46 
   2   7  -2    0.24    0.46 
   2   7  -2    0.09    0.61 
   2   7  -1   57.74    1.48 
   2   7  -1   58.40    1.46 
   2   7  -1   70.99    1.57 
   2   7  -1   39.35    1.83 
   2   7  -1   59.52    2.00 
   2   7  -1   38.07    1.85 
   2   7  -1   61.24    1.94 
   2   7  -1   67.58    1.30 
   2   7  -1   75.27    1.38 
   2   7  -1   63.55    1.42 
   2   7  -1   57.21    1.81 
   2   7  -1   72.77    2.01 
   2   7   0   -0.52    0.62 
   2   7   0    0.08    0.45 
   2   7   0   -0.53    0.48 
   2   7   0    0.11    0.45 
   2   7   0   -0.16    0.54 
   2   7   0   -0.74    0.57 
   2   7   0   -0.43    0.52 
   2   7   0    0.25    0.60 
   2   7   0    0.03    0.53 
   2   7   0   -0.01    0.40 
   2   7   0    0.09    0.58 
   2   7   0    0.06    0.44 
   2   7   0   -0.22    0.45 
   2   7   1    2.70    0.53 
   2   7   1    3.24    0.54 
   2   7   1    3.10    0.66 
   2   7   1    3.51    0.70 
   2   7   1    2.27    0.57 
   2   7   1    1.89    0.55 
   2   7   1    4.08    0.57 
   2   7   1    3.21    0.46 
   2   7   1    3.24    0.72 
   2   7   1    4.45    0.51 
   2   7   1    4.03    0.52 
   2   7   2    9.43    0.63 
   2   7   2   11.92    0.66 
   2   7   2   10.53    0.61 
   2   7   2    6.20    0.70 
   2   7   2    8.78    0.88 
   2   7   2    5.93    0.68 
   2   7   2    8.77    0.90 
   2   7   2    9.30    0.68 
   2   7   2    9.97    0.69 
   2   7   2    9.34    0.60 
   2   7   2    9.46    0.81 
   2   7   2   10.32    0.65 
   2   7   2    4.12    0.67 
   2   7   3   31.90    1.04 
   2   7   3   33.54    1.06 
   2   7   3   33.53    1.00 
   2   7   3   30.36    0.93 
   2   7   3   30.39    1.26 
   2   7   3   30.23    0.98 
   2   7   4    2.95    0.53 
   2   7   4    2.59    0.46 
   2   7   4    0.91    0.49 
   2   7   4    3.23    0.51 
   2   7   4    2.97    0.50 
   2   7   4    2.97    0.61 
   2   7   4    2.61    0.42 
   2   7   4    2.37    0.61 
   2   7   5   11.91    0.66 
   2   7   5   12.20    0.84 
   2   7   5   12.80    0.69 
   2   7   5   12.85    0.69 
   2   7   5   14.40    0.71 
   2   7   5   11.82    0.88 
   2   7   6   11.97    0.62 
   2   7   6   12.29    0.63 
   2   7   6   11.84    0.61 
   2   7   6   12.99    0.77 
   2   7   6   11.21    0.58 
   2   7   7   19.00    0.65 
   2   7   7   19.24    0.63 
   2   7   7   23.16    0.75 
   2   7   7   23.41    0.75 
   2   7   8    2.52    0.33 
   2   7   8    2.34    0.32 
   2   8  -6    0.36    0.25 
   2   8  -6    0.35    0.24 
   2   8  -5    0.48    0.28 
   2   8  -5    0.05    0.37 
   2   8  -5    0.64    0.34 
   2   8  -5    0.50    0.37 
   2   8  -4    0.23    0.34 
   2   8  -4    0.25    0.37 
   2   8  -4    0.55    0.42 
   2   8  -3   13.90    0.65 
   2   8  -3   15.66    0.71 
   2   8  -2   10.25    0.78 
   2   8  -2   10.76    0.64 
   2   8  -1   28.45    0.90 
   2   8  -1   19.43    1.07 
   2   8  -1   21.39    0.85 
   2   8  -1   24.96    0.88 
   2   8  -1   27.04    0.85 
   2   8   0    1.60    0.51 
   2   8   0    1.53    0.53 
   2   8   0    1.77    0.40 
   2   8   0    1.77    0.44 
   2   8   0    0.58    0.49 
   2   8   0    1.74    0.47 
   2   8   1   -0.04    0.50 
   2   8   1    0.29    0.34 
   2   8   1   -0.33    0.51 
   2   8   1    0.02    0.44 
   2   8   1    0.22    0.44 
   2   8   1   -0.01    0.38 
   2   8   2    0.07    0.45 
   2   8   2    0.52    0.44 
   2   8   2    0.11    0.34 
   2   8   2    0.81    0.46 
   2   8   2   -0.19    0.53 
   2   8   3   18.25    0.76 
   2   8   3   23.72    0.77 
   2   8   3   23.44    0.77 
   2   8   3   17.87    0.71 
   2   8   3   23.30    0.82 
   2   8   3   18.36    1.05 
   2   8   4   82.03    1.40 
   2   8   4   80.44    1.40 
   2   8   4   79.54    1.40 
   2   8   5    1.55    0.35 
   2   8   5    1.55    0.35 
   2   8   5    1.08    0.43 
   2   8   5    1.07    0.33 
   2   8   6   17.87    0.58 
   2   8   6   17.47    0.57 
   2   8   6   17.47    0.60 
   2   9  -4    2.28    0.26 
   2   9  -4    2.68    0.29 
   2   9  -3    1.57    0.35 
   2   9  -2    3.89    0.42 
   2   9  -1    0.28    0.29 
   2   9  -1    1.28    0.40 
   2   9  -1    1.39    0.30 
   2   9   0    3.80    0.39 
   2   9   0    3.92    0.41 
   2   9   1    4.05    0.39 
   2   9   1    4.80    0.42 
   2   9   2    1.66    0.46 
   3  -8  -2    0.12    0.21 
   3  -8  -1    0.11    0.21 
   3  -8  -1    0.05    0.21 
   3  -8  -1    0.16    0.22 
   3  -8   0    1.11    0.26 
   3  -8   0    1.16    0.25 
   3  -8   1    2.34    0.28 
   3  -8   1    2.25    0.28 
   3  -8   2    9.37    0.37 
   3  -8   2    9.21    0.37 
   3  -8   3   28.93    0.61 
   3  -8   3   28.43    0.61 
   3  -7  -5    3.40    0.35 
   3  -7  -3    4.08    0.39 
   3  -7  -3    3.76    0.52 
   3  -7  -2    6.43    0.42 
   3  -7  -2    6.46    0.42 
   3  -7  -1    2.68    0.34 
   3  -7  -1    2.50    0.34 
   3  -7  -1    2.76    1.44 
   3  -7   0   42.95    1.79 
   3  -7   0   39.94    1.16 
   3  -7   0   42.81    0.87 
   3  -7   0   43.70    0.87 
   3  -7   1   26.89    1.39 
   3  -7   1   24.31    0.92 
   3  -7   1   26.63    0.70 
   3  -7   1   26.84    0.70 
   3  -7   2    9.74    0.62 
   3  -7   2    9.88    0.89 
   3  -7   2    9.55    0.61 
   3  -7   2   11.09    0.46 
   3  -7   2   11.29    0.49 
   3  -7   2   11.55    0.49 
   3  -7   3    3.84    0.43 
   3  -7   3    3.15    0.43 
   3  -7   3    2.41    0.56 
   3  -7   3    3.22    0.41 
   3  -7   3    3.72    0.33 
   3  -7   3    4.11    0.35 
   3  -7   3    3.41    0.33 
   3  -7   4    4.28    0.42 
   3  -7   4    3.69    0.31 
   3  -7   5    3.80    0.30 
   3  -7   5    3.85    0.27 
   3  -7   7    6.91    0.26 
   3  -6  -6    1.45    0.35 
   3  -6  -5   24.66    1.05 
   3  -6  -4    0.13    0.31 
   3  -6  -4    0.38    0.43 
   3  -6  -4    0.26    1.03 
   3  -6  -4    0.04    1.09 
   3  -6  -3   13.40    0.55 
   3  -6  -3   12.37    0.55 
   3  -6  -3    0.79    0.99 
   3  -6  -3   -0.60    1.09 
   3  -6  -3   -0.44    0.58 
   3  -6  -2    0.36    0.73 
   3  -6  -1    0.73    0.34 
   3  -6  -1    1.21    0.35 
   3  -6  -1    0.86    0.36 
   3  -6   0   13.16    2.35 
   3  -6   0   19.60    0.85 
   3  -6   0    6.13    2.80 
   3  -6   0    6.43    2.92 
   3  -6   0   18.78    0.85 
   3  -6   1   63.65    2.61 
   3  -6   1   66.95    2.69 
   3  -6   1   51.21    1.26 
   3  -6   1   51.16    1.38 
   3  -6   1   65.18    2.65 
   3  -6   1   49.24    1.36 
   3  -6   1   51.36    1.03 
   3  -6   2   65.12    1.21 
   3  -6   2   64.08    1.49 
   3  -6   2   62.15    1.55 
   3  -6   2   66.11    2.14 
   3  -6   2   60.83    1.55 
   3  -6   2   61.84    1.49 
   3  -6   3   27.90    1.01 
   3  -6   3   28.51    1.03 
   3  -6   3   27.16    1.00 
   3  -6   3   27.29    0.73 
   3  -6   3   28.89    0.80 
   3  -6   3   26.28    1.00 
   3  -6   4    0.34    0.37 
   3  -6   4    0.09    0.32 
   3  -6   4   -0.06    0.24 
   3  -6   4    0.26    0.29 
   3  -6   4    0.25    0.48 
   3  -6   5    6.81    0.40 
   3  -6   5    6.81    0.55 
   3  -6   5    6.12    0.53 
   3  -6   5    5.48    0.60 
   3  -6   5    6.86    0.56 
   3  -6   5    6.04    0.54 
   3  -6   6   17.39    0.74 
   3  -6   6   17.19    0.57 
   3  -6   6   11.29    0.59 
   3  -6   6   11.51    0.60 
   3  -6   6   15.29    0.75 
   3  -6   6   16.37    0.73 
   3  -6   7    0.23    0.20 
   3  -6   7    0.15    0.24 
   3  -6   8    0.48    0.19 
   3  -5  -8    8.12    0.55 
   3  -5  -7   57.96    1.21 
   3  -5  -6   43.17    1.12 
   3  -5  -5    5.16    0.88 
   3  -5  -5    3.92    0.60 
   3  -5  -4   36.81    1.32 
   3  -5  -4   48.32    1.84 
   3  -5  -3    2.65    0.45 
   3  -5  -3    1.91    0.73 
   3  -5  -2    4.60    0.48 
   3  -5  -2    6.80    1.63 
   3  -5  -2    8.33    1.79 
   3  -5  -1    0.90    0.89 
   3  -5  -1    1.33    0.95 
   3  -5  -1    3.13    0.41 
   3  -5  -1    3.10    0.39 
   3  -5  -1    3.02    0.40 
   3  -5   0  223.17    3.27 
   3  -5   1   33.31    3.42 
   3  -5   1  406.95    4.89 
   3  -5   1   37.49    3.51 
   3  -5   1  408.31    4.91 
   3  -5   1  431.18    3.91 
   3  -5   1  417.13    3.90 
   3  -5   1  285.18    5.39 
   3  -5   2   44.54    0.97 
   3  -5   2   39.58    1.59 
   3  -5   2   36.39    1.13 
   3  -5   2   46.38    1.31 
   3  -5   2   71.38    2.39 
   3  -5   2   53.72    1.79 
   3  -5   2   74.72    2.45 
   3  -5   2   54.60    1.79 
   3  -5   2   44.62    1.33 
   3  -5   2   74.88    2.48 
   3  -5   2   47.68    1.30 
   3  -5   3   56.88    1.96 
   3  -5   3   59.32    1.18 
   3  -5   3   63.55    1.55 
   3  -5   3   61.99    1.54 
   3  -5   4   10.68    0.96 
   3  -5   4    9.78    0.65 
   3  -5   4   10.27    0.49 
   3  -5   4   11.44    0.72 
   3  -5   4   11.94    0.88 
   3  -5   4   11.28    0.54 
   3  -5   4   12.21    0.74 
   3  -5   5    3.91    0.35 
   3  -5   5    3.77    0.50 
   3  -5   5    4.38    0.54 
   3  -5   5    3.85    0.56 
   3  -5   6    0.29    0.36 
   3  -5   6    0.08    0.26 
   3  -5   6    0.15    0.25 
   3  -5   7   59.48    1.12 
   3  -5   7   56.44    1.09 
   3  -5   7   55.68    1.48 
   3  -5   7   56.94    1.14 
   3  -5   7   58.04    1.45 
   3  -5   7   54.44    1.33 
   3  -5   7   54.80    1.33 
   3  -5   8   15.83    0.52 
   3  -5   8   14.46    0.51 
   3  -5   9    2.65    0.23 
   3  -5   9    1.90    0.25 
   3  -4  -9    0.25    0.38 
   3  -4  -9   -0.10    0.39 
   3  -4  -8    8.85    0.62 
   3  -4  -6    0.60    0.60 
   3  -4  -6    0.44    0.63 
   3  -4  -5   29.76    1.31 
   3  -4  -5   23.45    1.25 
   3  -4  -4    6.03    0.53 
   3  -4  -4    5.18    0.74 
   3  -4  -3    5.18    0.69 
   3  -4  -3    3.83    0.43 
   3  -4  -2    0.46    0.58 
   3  -4  -2    0.02    0.25 
   3  -4  -1   26.76    1.16 
   3  -4  -1   18.62    0.77 
   3  -4   0    0.20    1.01 
   3  -4   0    0.44    1.01 
   3  -4   1    2.26    0.40 
   3  -4   1    1.97    0.30 
   3  -4   2    9.43    0.64 
   3  -4   2    9.47    0.55 
   3  -4   2    7.42    1.12 
   3  -4   2    7.63    1.19 
   3  -4   2    6.93    0.75 
   3  -4   2    7.51    1.22 
   3  -4   2    8.73    0.79 
   3  -4   3   22.87    0.94 
   3  -4   3   20.88    0.87 
   3  -4   3   25.86    1.31 
   3  -4   3   27.91    1.19 
   3  -4   3   27.30    1.17 
   3  -4   3   22.18    0.72 
   3  -4   4    7.74    0.63 
   3  -4   4    7.70    0.50 
   3  -4   4    9.33    0.85 
   3  -4   4    6.74    0.57 
   3  -4   4    9.23    0.76 
   3  -4   4    9.18    0.81 
   3  -4   4    9.62    0.82 
   3  -4   5    2.10    0.36 
   3  -4   5    2.68    0.63 
   3  -4   5    1.80    0.40 
   3  -4   5    2.03    0.45 
   3  -4   5    2.81    0.60 
   3  -4   5    2.22    0.57 
   3  -4   5    2.11    0.48 
   3  -4   5    2.28    0.41 
   3  -4   6   20.97    0.74 
   3  -4   6   21.55    1.12 
   3  -4   6   16.29    0.99 
   3  -4   6   17.01    0.90 
   3  -4   6   20.38    1.06 
   3  -4   6   19.64    1.05 
   3  -4   6   19.57    0.88 
   3  -4   6   16.92    0.79 
   3  -4   6   15.92    0.79 
   3  -4   7   14.96    0.63 
   3  -4   7   12.84    0.71 
   3  -4   7   15.32    0.88 
   3  -4   7   14.00    0.86 
   3  -4   7   13.92    0.76 
   3  -4   7   15.23    0.83 
   3  -4   8    4.62    0.39 
   3  -4   8    4.59    0.36 
   3  -4   8    4.77    0.39 
   3  -4   8    4.08    0.38 
   3  -4   8    4.55    0.48 
   3  -4   8    4.71    0.48 
   3  -4   8    4.02    0.46 
   3  -4   8    4.56    0.49 
   3  -4   9   24.83    0.61 
   3  -4   9   24.64    0.69 
   3  -4  10    0.05    0.16 
   3  -4  10    0.01    0.18 
   3  -3  -9    2.94    0.54 
   3  -3  -9    2.85    0.54 
   3  -3  -8    0.38    0.56 
   3  -3  -8   -0.15    0.57 
   3  -3  -8    0.15    0.43 
   3  -3  -7    1.14    0.67 
   3  -3  -6   -0.18    0.64 
   3  -3  -5   14.27    0.95 
   3  -3  -4    4.76    0.42 
   3  -3  -4    3.71    0.59 
   3  -3  -3   14.16    0.73 
   3  -3  -3   12.50    0.58 
   3  -3  -2   74.32    1.42 
   3  -3  -2   60.68    1.38 
   3  -3   0   15.46    0.78 
   3  -3   0    9.90    0.48 
   3  -3   1   33.34    1.74 
   3  -3   1   32.58    1.79 
   3  -3   2   83.86    1.59 
   3  -3   2    5.94    0.96 
   3  -3   2   83.85    1.69 
   3  -3   2    6.43    0.98 
   3  -3   2   87.01    1.71 
   3  -3   2   43.99    1.78 
   3  -3   2   80.77    1.48 
   3  -3   3  109.10    2.27 
   3  -3   3  112.19    2.28 
   3  -3   3  110.64    1.94 
   3  -3   3  104.25    2.03 
   3  -3   4    1.33    0.36 
   3  -3   4    1.43    0.37 
   3  -3   4    1.38    0.36 
   3  -3   4    1.66    0.45 
   3  -3   4    1.47    0.48 
   3  -3   4    1.66    0.49 
   3  -3   4    1.58    0.43 
   3  -3   4    1.63    0.39 
   3  -3   4    1.23    0.32 
   3  -3   5    1.35    0.39 
   3  -3   5    2.39    0.40 
   3  -3   5    2.23    0.37 
   3  -3   5    1.89    0.48 
   3  -3   5    2.07    0.50 
   3  -3   5    2.38    0.51 
   3  -3   5    2.20    0.41 
   3  -3   5    1.88    0.42 
   3  -3   5    1.66    0.35 
   3  -3   6   25.14    1.16 
   3  -3   6   22.81    1.09 
   3  -3   6   20.60    0.93 
   3  -3   6   24.61    0.84 
   3  -3   6   25.59    0.81 
   3  -3   6   24.36    1.06 
   3  -3   6   23.98    1.07 
   3  -3   6   24.47    1.08 
   3  -3   6   22.24    0.97 
   3  -3   6   23.64    1.06 
   3  -3   7   97.50    2.11 
   3  -3   7   83.54    2.02 
   3  -3   7  101.13    1.75 
   3  -3   7  100.88    1.67 
   3  -3   7   97.27    2.07 
   3  -3   7   95.79    2.13 
   3  -3   7   94.98    2.13 
   3  -3   7   93.83    2.26 
   3  -3   7   86.74    2.14 
   3  -3   7  104.27    2.31 
   3  -3   7  102.54    2.17 
   3  -3   8   24.16    0.77 
   3  -3   8   24.59    1.04 
   3  -3   8   22.43    0.99 
   3  -3   8   23.20    1.00 
   3  -3   8   24.97    0.80 
   3  -3   8   23.23    0.75 
   3  -3   8   20.54    0.67 
   3  -3   8   22.89    0.99 
   3  -3   8   23.76    0.95 
   3  -3   9   33.93    0.82 
   3  -3   9   33.68    0.84 
   3  -3   9   30.07    1.09 
   3  -3   9   30.83    1.10 
   3  -3   9   30.26    0.74 
   3  -3  10    0.80    0.21 
   3  -3  10    0.97    0.24 
   3  -3  11    7.39    0.26 
   3  -2 -10    9.19    0.59 
   3  -2 -10    8.46    0.59 
   3  -2 -10    8.95    0.60 
   3  -2  -9    5.89    0.72 
   3  -2  -9    5.91    0.75 
   3  -2  -9    4.94    0.57 
   3  -2  -9    4.02    0.55 
   3  -2  -8    3.05    0.65 
   3  -2  -8    2.67    0.63 
   3  -2  -8    2.60    0.47 
   3  -2  -7  153.40    2.80 
   3  -2  -7  154.15    2.87 
   3  -2  -6   16.31    1.05 
   3  -2  -5    3.05    0.57 
   3  -2  -5    3.00    0.53 
   3  -2  -5    2.61    0.51 
   3  -2  -3   26.53    0.81 
   3  -2  -3   29.50    0.78 
   3  -2   0  174.96    2.37 
   3  -2   1    3.07    0.41 
   3  -2   2  117.07    1.90 
   3  -2   2  115.41    1.91 
   3  -2   2  110.89    1.93 
   3  -2   2  107.30    1.91 
   3  -2   2  104.51    1.58 
   3  -2   3   10.02    0.65 
   3  -2   3   10.62    0.65 
   3  -2   3   10.17    0.69 
   3  -2   3   10.08    0.64 
   3  -2   3    9.05    0.62 
   3  -2   3    8.82    0.52 
   3  -2   4   67.04    1.75 
   3  -2   4   59.17    1.44 
   3  -2   4   60.23    1.44 
   3  -2   4   63.51    1.48 
   3  -2   4   59.64    1.52 
   3  -2   4   53.52    1.17 
   3  -2   4   65.53    1.60 
   3  -2   4   52.38    1.29 
   3  -2   4   54.07    1.47 
   3  -2   4   56.56    1.44 
   3  -2   5    4.99    0.51 
   3  -2   5    2.99    0.62 
   3  -2   5    4.27    0.51 
   3  -2   5    4.45    0.52 
   3  -2   5    4.35    0.55 
   3  -2   5    4.60    0.57 
   3  -2   5    4.32    0.50 
   3  -2   6    1.82    0.42 
   3  -2   6    0.78    0.54 
   3  -2   6    1.54    0.44 
   3  -2   6    1.61    0.45 
   3  -2   6    1.74    0.47 
   3  -2   6    1.67    0.49 
   3  -2   6    1.75    0.46 
   3  -2   7   20.37    1.01 
   3  -2   7   22.00    1.03 
   3  -2   7   20.06    1.01 
   3  -2   7   21.28    1.02 
   3  -2   7   22.20    0.82 
   3  -2   7   18.59    1.05 
   3  -2   7   19.79    0.94 
   3  -2   7   18.67    0.92 
   3  -2   7   17.74    0.87 
   3  -2   7   20.71    1.01 
   3  -2   7   20.23    0.97 
   3  -2   8   41.43    1.27 
   3  -2   8   38.52    0.92 
   3  -2   8   46.99    1.12 
   3  -2   8   42.35    1.21 
   3  -2   8   45.98    1.47 
   3  -2   8   41.97    1.32 
   3  -2   8   40.28    1.30 
   3  -2   8   39.75    1.25 
   3  -2   8   46.82    1.45 
   3  -2   8   41.60    1.44 
   3  -2   8   43.26    1.41 
   3  -2   8   42.05    1.39 
   3  -2   9   24.77    0.79 
   3  -2   9   24.86    0.78 
   3  -2   9   22.02    0.65 
   3  -2   9   24.14    1.03 
   3  -2   9   22.93    0.90 
   3  -2   9   23.79    1.02 
   3  -2   9   24.43    0.71 
   3  -2  10   14.19    0.74 
   3  -2  10   14.12    0.45 
   3  -2  10   13.15    0.74 
   3  -2  10   15.89    0.56 
   3  -2  10   14.13    0.56 
   3  -2  11    2.20    0.24 
   3  -2  11    2.42    0.18 
   3  -1 -10   33.94    0.97 
   3  -1 -10   32.37    0.94 
   3  -1 -10   34.12    0.95 
   3  -1  -9    1.49    0.49 
   3  -1  -9    1.85    0.61 
   3  -1  -9    1.43    0.46 
   3  -1  -9    1.71    0.69 
   3  -1  -9    1.39    0.62 
   3  -1  -9    1.65    0.62 
   3  -1  -9    1.49    0.58 
   3  -1  -8   69.96    1.47 
   3  -1  -8   61.63    1.99 
   3  -1  -8   61.01    2.00 
   3  -1  -8   72.66    1.94 
   3  -1  -8   61.70    1.81 
   3  -1  -8   73.74    1.88 
   3  -1  -8   75.19    1.49 
   3  -1  -7   29.76    1.32 
   3  -1  -7   28.83    1.37 
   3  -1  -7   36.62    1.33 
   3  -1  -7   28.86    1.36 
   3  -1  -7   34.73    1.25 
   3  -1  -6    8.93    0.81 
   3  -1  -6   10.45    0.73 
   3  -1  -6    7.97    0.77 
   3  -1  -6    8.33    0.77 
   3  -1  -6    8.83    0.68 
   3  -1  -6    9.35    0.78 
   3  -1  -6   10.93    0.72 
   3  -1  -5   11.73    0.71 
   3  -1  -5   11.64    0.67 
   3  -1  -5   12.36    0.67 
   3  -1  -4   77.57    1.43 
   3  -1  -4   74.71    1.46 
   3  -1  -4   75.14    1.46 
   3  -1  -3   16.70    0.61 
   3  -1   1  721.09    7.35 
   3  -1   1  655.94    6.93 
   3  -1   2  310.39    3.84 
   3  -1   2  308.61    3.77 
   3  -1   2  309.14    3.68 
   3  -1   2  311.29    3.69 
   3  -1   3  154.78    2.35 
   3  -1   3  143.29    2.30 
   3  -1   3  127.84    2.19 
   3  -1   3  129.93    2.18 
   3  -1   3  138.64    2.12 
   3  -1   3  135.36    2.10 
   3  -1   3  155.83    2.68 
   3  -1   4   16.35    0.81 
   3  -1   4   17.16    0.90 
   3  -1   4   18.17    0.82 
   3  -1   4   14.83    0.81 
   3  -1   4   16.16    0.74 
   3  -1   4   16.57    0.79 
   3  -1   4   15.69    0.71 
   3  -1   4   15.21    0.70 
   3  -1   5    7.31    0.61 
   3  -1   5    7.09    0.69 
   3  -1   5    7.06    0.67 
   3  -1   5    6.90    0.54 
   3  -1   5    6.48    0.53 
   3  -1   5    7.85    0.75 
   3  -1   5    6.11    0.54 
   3  -1   5    6.14    0.52 
   3  -1   5    6.97    0.63 
   3  -1   6  191.13    3.21 
   3  -1   6  156.02    3.33 
   3  -1   6  194.22    3.06 
   3  -1   6  186.12    2.83 
   3  -1   6  206.06    2.80 
   3  -1   6  195.99    3.13 
   3  -1   6  173.33    3.27 
   3  -1   6  178.28    2.85 
   3  -1   6  176.98    2.84 
   3  -1   6  175.23    3.40 
   3  -1   6  194.51    2.47 
   3  -1   7  143.68    2.03 
   3  -1   7  144.24    2.70 
   3  -1   7  146.65    2.82 
   3  -1   7  146.01    2.79 
   3  -1   7  134.71    2.37 
   3  -1   7  150.48    2.30 
   3  -1   7  154.48    2.33 
   3  -1   7  147.02    2.64 
   3  -1   7  146.60    2.82 
   3  -1   7  132.77    2.46 
   3  -1   7  132.23    2.44 
   3  -1   7  145.09    2.88 
   3  -1   7  124.54    1.87 
   3  -1   8   52.52    1.11 
   3  -1   8   54.64    1.70 
   3  -1   8   52.77    1.55 
   3  -1   8   50.48    1.54 
   3  -1   8   52.75    1.39 
   3  -1   8   56.18    1.27 
   3  -1   8   55.78    1.29 
   3  -1   8   50.40    1.43 
   3  -1   8   50.69    1.43 
   3  -1   8   46.81    1.01 
   3  -1   8   51.88    1.50 
   3  -1   8   58.18    1.66 
   3  -1   9    3.05    0.34 
   3  -1   9    3.52    0.38 
   3  -1   9    3.59    0.41 
   3  -1   9    2.91    0.37 
   3  -1   9    3.57    0.45 
   3  -1   9    3.33    0.45 
   3  -1   9    3.21    0.33 
   3  -1   9    4.12    0.54 
   3  -1   9    3.63    0.52 
   3  -1  10   33.58    0.70 
   3  -1  10   32.60    1.07 
   3  -1  10   34.03    0.88 
   3   0 -11   17.27    0.55 
   3   0 -10    3.35    1.06 
   3   0 -10    3.50    1.07 
   3   0  -9  132.50    2.05 
   3   0  -9  130.32    2.13 
   3   0  -9  130.56    2.59 
   3   0  -9  139.93    3.08 
   3   0  -9  136.50    3.06 
   3   0  -9  127.29    2.65 
   3   0  -9  137.79    2.73 
   3   0  -9  134.01    2.05 
   3   0  -8    0.48    0.46 
   3   0  -8    0.32    0.46 
   3   0  -8   -0.36    0.80 
   3   0  -8    0.37    0.74 
   3   0  -8    0.44    0.64 
   3   0  -8    0.78    0.62 
   3   0  -8   -0.05    0.59 
   3   0  -8   -0.70    0.90 
   3   0  -8    0.09    0.68 
   3   0  -7   41.95    1.07 
   3   0  -7   45.08    1.07 
   3   0  -7   34.86    1.43 
   3   0  -7   40.10    1.55 
   3   0  -7   35.29    1.43 
   3   0  -7   42.57    1.57 
   3   0  -7   40.72    1.56 
   3   0  -7   44.70    1.39 
   3   0  -7   39.76    1.59 
   3   0  -7   40.10    1.58 
   3   0  -7   44.62    1.43 
   3   0  -7   42.09    1.43 
   3   0  -6   15.24    0.91 
   3   0  -6   16.16    0.92 
   3   0  -6   16.28    0.94 
   3   0  -6   18.06    1.00 
   3   0  -6   17.74    0.87 
   3   0  -6   16.48    0.99 
   3   0  -6   18.39    0.90 
   3   0  -6   16.47    0.97 
   3   0  -5    0.01    0.38 
   3   0  -5    0.28    0.40 
   3   0  -5   -0.09    0.42 
   3   0  -5    0.13    0.41 
   3   0  -5   -0.13    0.36 
   3   0  -5    0.10    0.36 
   3   0  -4  188.19    2.47 
   3   0  -4  168.52    2.70 
   3   0  -4  162.29    2.68 
   3   0  -4  191.67    2.52 
   3   0  -4  180.02    2.51 
   3   0  -1  466.22    4.62 
   3   0   0  106.46    1.50 
   3   0   1  557.96    5.62 
   3   0   1  554.29    5.58 
   3   0   1  506.89    5.35 
   3   0   1  499.90    5.35 
   3   0   1  491.34    6.02 
   3   0   1  588.98    5.46 
   3   0   2   27.69    0.83 
   3   0   2   25.50    0.77 
   3   0   2   23.85    0.91 
   3   0   2   24.94    0.70 
   3   0   2   25.30    0.70 
   3   0   2   29.39    1.06 
   3   0   3  400.32    4.82 
   3   0   3  393.85    4.49 
   3   0   3  383.21    4.47 
   3   0   3  353.18    4.14 
   3   0   3  352.92    4.14 
   3   0   3  418.84    4.88 
   3   0   4  231.08    3.31 
   3   0   4  196.92    2.75 
   3   0   4  197.60    2.75 
   3   0   4  218.15    3.02 
   3   0   4  225.37    3.39 
   3   0   4  211.68    3.05 
   3   0   4  225.15    3.13 
   3   0   4  255.84    3.76 
   3   0   5   14.29    0.73 
   3   0   5   15.07    0.83 
   3   0   5   12.18    0.60 
   3   0   5   12.50    0.61 
   3   0   5   14.27    0.86 
   3   0   5   13.41    0.69 
   3   0   5   13.44    0.68 
   3   0   5   12.80    0.74 
   3   0   5   14.08    0.89 
   3   0   5   11.02    0.87 
   3   0   6   13.53    0.70 
   3   0   6   13.33    0.81 
   3   0   6   11.51    0.64 
   3   0   6   12.13    0.64 
   3   0   6   11.65    0.86 
   3   0   6   14.09    0.90 
   3   0   6   12.35    0.70 
   3   0   6   12.52    0.75 
   3   0   6   13.37    0.88 
   3   0   7  584.07    6.06 
   3   0   7  564.84    6.63 
   3   0   7  591.83    7.02 
   3   0   7  545.36    6.59 
   3   0   7  608.43    7.22 
   3   0   7  532.33    6.39 
   3   0   7  523.68    6.36 
   3   0   7  548.72    6.40 
   3   0   7  576.39    6.84 
   3   0   8    7.23    0.56 
   3   0   8    6.53    0.67 
   3   0   8    6.51    0.58 
   3   0   8    6.35    0.63 
   3   0   8    6.27    0.58 
   3   0   8    7.35    0.52 
   3   0   8    6.37    0.56 
   3   0   8    6.35    0.57 
   3   0   8    6.71    0.66 
   3   0   8    6.69    0.71 
   3   0   8    6.39    0.46 
   3   0   8    6.65    0.69 
   3   0   9   29.00    0.73 
   3   0   9   29.09    0.80 
   3   0   9   28.33    1.03 
   3   0   9   30.87    1.07 
   3   0   9   31.40    0.89 
   3   0   9   32.58    1.19 
   3   0   9   32.01    1.24 
   3   0   9   31.24    0.86 
   3   0  10    0.22    0.32 
   3   0  10    0.10    0.34 
   3   0  10    0.50    0.37 
   3   0  10    0.92    0.37 
   3   0  10    0.26    0.25 
   3   0  11    2.08    0.27 
   3   0  11    2.56    0.25 
   3   1 -11    2.46    0.38 
   3   1 -10  102.46    2.30 
   3   1 -10   95.73    2.29 
   3   1  -9   67.44    1.36 
   3   1  -9   39.85    1.47 
   3   1  -9   39.01    1.45 
   3   1  -9   63.70    1.68 
   3   1  -9   70.14    2.21 
   3   1  -9   62.74    2.15 
   3   1  -9   62.45    1.78 
   3   1  -9   60.87    1.74 
   3   1  -8   66.59    1.43 
   3   1  -8   57.36    2.01 
   3   1  -8   59.51    1.94 
   3   1  -8   58.21    2.02 
   3   1  -8   65.90    1.77 
   3   1  -8   70.41    2.21 
   3   1  -8   67.29    2.17 
   3   1  -8   69.50    1.89 
   3   1  -8   69.39    1.87 
   3   1  -8   65.72    2.12 
   3   1  -8   69.93    2.12 
   3   1  -7   18.58    0.96 
   3   1  -7   18.68    0.77 
   3   1  -7   17.54    1.13 
   3   1  -7   17.32    1.12 
   3   1  -7   18.68    1.15 
   3   1  -7   18.92    1.22 
   3   1  -7   17.06    1.16 
   3   1  -7   17.64    1.14 
   3   1  -7   20.95    1.06 
   3   1  -7   20.76    1.06 
   3   1  -6   -0.16    0.51 
   3   1  -6   -0.16    0.52 
   3   1  -6   -0.24    0.58 
   3   1  -6    0.05    0.53 
   3   1  -6   -0.16    0.46 
   3   1  -6   -0.11    0.48 
   3   1  -6    0.20    0.48 
   3   1  -5   18.65    1.00 
   3   1  -5   18.32    1.00 
   3   1  -5   17.14    0.82 
   3   1  -5   18.42    0.85 
   3   1  -5   18.27    0.83 
   3   1  -5   16.84    0.84 
   3   1  -5   18.70    0.80 
   3   1  -4  105.06    1.85 
   3   1  -4  101.75    1.82 
   3   1  -4  110.64    1.87 
   3   1  -4  112.71    1.78 
   3   1  -3  313.07    3.39 
   3   1  -1   12.74    0.41 
   3   1  -1   16.43    0.76 
   3   1   0  284.01    3.01 
   3   1   0  312.82    3.63 
   3   1   1    1.26    0.29 
   3   1   1    1.13    0.22 
   3   1   1    0.83    0.47 
   3   1   2  204.23    2.46 
   3   1   2  200.12    2.48 
   3   1   2  215.84    2.49 
   3   1   2  171.49    2.97 
   3   1   2  176.65    2.08 
   3   1   2  179.53    2.08 
   3   1   3   37.68    0.97 
   3   1   3   39.04    1.28 
   3   1   3   39.59    0.98 
   3   1   3   40.61    1.39 
   3   1   3   39.76    1.26 
   3   1   3   40.55    1.32 
   3   1   4   17.10    0.94 
   3   1   4   15.09    0.57 
   3   1   4   15.53    0.57 
   3   1   4   16.44    0.70 
   3   1   4   16.84    0.69 
   3   1   4   18.68    0.97 
   3   1   4   17.78    0.95 
   3   1   4   17.89    0.85 
   3   1   4   14.53    0.99 
   3   1   5    2.58    0.55 
   3   1   5    2.66    0.55 
   3   1   5    3.27    0.58 
   3   1   5    1.90    0.31 
   3   1   5    2.04    0.32 
   3   1   5    2.13    0.34 
   3   1   5    2.35    0.34 
   3   1   5    2.07    0.48 
   3   1   5    2.25    0.55 
   3   1   5    1.85    0.60 
   3   1   6   46.38    1.22 
   3   1   6   42.42    1.37 
   3   1   6   41.58    1.25 
   3   1   6   39.88    1.19 
   3   1   6   40.81    1.10 
   3   1   6   40.40    1.09 
   3   1   6   44.14    1.55 
   3   1   6   43.22    1.28 
   3   1   6   42.82    1.34 
   3   1   6   42.67    1.47 
   3   1   6   45.44    1.54 
   3   1   7  453.71    5.05 
   3   1   7  446.09    5.65 
   3   1   7  447.89    5.84 
   3   1   7  423.34    5.41 
   3   1   7  446.84    5.21 
   3   1   7  418.13    5.22 
   3   1   7  420.35    5.21 
   3   1   7  441.31    5.52 
   3   1   7  482.62    5.99 
   3   1   7  454.01    5.48 
   3   1   7  409.28    4.72 
   3   1   7  445.88    5.75 
   3   1   7  479.26    5.99 
   3   1   8    4.01    0.56 
   3   1   8    5.39    0.66 
   3   1   8    5.48    0.74 
   3   1   8    4.93    0.53 
   3   1   8    4.64    0.51 
   3   1   8    3.85    0.42 
   3   1   8    5.31    0.52 
   3   1   8    4.84    0.50 
   3   1   8    4.71    0.51 
   3   1   8    4.58    0.63 
   3   1   8    5.51    0.67 
   3   1   8    4.63    0.41 
   3   1   8    4.95    0.66 
   3   1   8    4.57    0.65 
   3   1   9   22.94    0.69 
   3   1   9   15.97    0.84 
   3   1   9   26.26    0.84 
   3   1   9   24.61    1.04 
   3   1   9   18.20    1.06 
   3   1   9   24.13    0.72 
   3   1   9   24.27    1.07 
   3   1   9   25.77    1.09 
   3   1  10    9.04    0.52 
   3   1  10    8.77    0.65 
   3   1  10    9.41    0.60 
   3   1  10    9.44    0.44 
   3   1  10    8.61    0.65 
   3   1  10    9.48    0.63 
   3   1  11    3.56    0.29 
   3   1  11    3.95    0.34 
   3   1  11    4.62    0.29 
   3   1  12    0.37    0.12 
   3   2 -11   20.41    0.62 
   3   2 -11   21.62    0.55 
   3   2 -10    9.63    0.50 
   3   2 -10    9.90    0.71 
   3   2 -10   10.15    0.73 
   3   2  -9   23.67    0.81 
   3   2  -9   22.39    1.36 
   3   2  -9   22.49    1.39 
   3   2  -9   21.75    1.05 
   3   2  -9   21.01    1.12 
   3   2  -8    3.47    0.73 
   3   2  -8    6.69    0.92 
   3   2  -8    7.13    0.95 
   3   2  -8    5.86    0.59 
   3   2  -8    6.33    0.78 
   3   2  -8    5.94    0.75 
   3   2  -8    3.06    0.70 
   3   2  -7    5.24    0.71 
   3   2  -7    5.30    0.73 
   3   2  -7    6.41    0.80 
   3   2  -7    6.44    0.76 
   3   2  -7    5.70    0.86 
   3   2  -7    6.18    0.91 
   3   2  -7    6.79    0.59 
   3   2  -7    6.35    0.72 
   3   2  -7    5.10    0.93 
   3   2  -7    6.13    0.85 
   3   2  -7    6.15    0.85 
   3   2  -6    0.28    0.56 
   3   2  -6    0.10    0.56 
   3   2  -6    0.37    0.59 
   3   2  -6   -0.20    0.54 
   3   2  -6    0.61    0.44 
   3   2  -6    0.57    0.53 
   3   2  -6    0.37    0.68 
   3   2  -6    0.66    0.59 
   3   2  -6    0.43    0.60 
   3   2  -5   14.54    0.82 
   3   2  -5   12.97    0.66 
   3   2  -5   14.05    0.81 
   3   2  -5   14.91    0.87 
   3   2  -5   16.06    0.87 
   3   2  -5   17.28    1.11 
   3   2  -4   49.68    1.26 
   3   2  -4   49.27    1.38 
   3   2  -3   53.30    1.54 
   3   2  -3   40.72    0.98 
   3   2  -3   42.95    1.08 
   3   2  -3   51.11    1.27 
   3   2  -2    8.89    0.77 
   3   2  -2    7.62    0.42 
   3   2  -1  167.48    2.78 
   3   2  -1  132.74    1.89 
   3   2   0    8.86    0.30 
   3   2   0    9.61    0.45 
   3   2   1    6.12    0.53 
   3   2   1    6.00    0.31 
   3   2   1    5.91    0.27 
   3   2   1    5.85    0.46 
   3   2   2  187.72    2.43 
   3   2   2  185.78    2.51 
   3   2   2  190.85    2.30 
   3   2   3    8.09    0.57 
   3   2   3    7.50    0.57 
   3   2   3    8.07    0.45 
   3   2   3    7.85    0.49 
   3   2   3    8.78    0.44 
   3   2   3    7.23    0.82 
   3   2   3    7.07    0.74 
   3   2   3    7.42    0.48 
   3   2   4    0.07    0.34 
   3   2   4    0.19    0.34 
   3   2   4    0.06    0.55 
   3   2   4    0.43    0.49 
   3   2   4    0.31    0.54 
   3   2   4    0.39    0.24 
   3   2   4    0.38    0.22 
   3   2   5   23.12    0.78 
   3   2   5   24.20    0.87 
   3   2   5   26.70    1.15 
   3   2   5   24.73    0.78 
   3   2   5   25.89    0.80 
   3   2   5   25.10    1.01 
   3   2   5   25.16    1.08 
   3   2   5   24.59    1.13 
   3   2   6    0.89    0.53 
   3   2   6    0.57    0.38 
   3   2   6    0.62    0.38 
   3   2   6    0.18    0.29 
   3   2   6    0.39    0.29 
   3   2   6    1.48    0.62 
   3   2   6    0.61    0.55 
   3   2   6    0.38    0.54 
   3   2   6    0.45    0.55 
   3   2   6    0.40    0.56 
   3   2   6    0.53    0.28 
   3   2   6    0.14    0.54 
   3   2   7    7.72    0.66 
   3   2   7    7.81    0.55 
   3   2   7    8.17    0.55 
   3   2   7    5.45    0.65 
   3   2   7    7.16    0.85 
   3   2   7    6.90    0.56 
   3   2   7    6.60    0.59 
   3   2   7    7.08    0.75 
   3   2   7    7.74    0.77 
   3   2   7    7.29    0.72 
   3   2   7    8.05    0.77 
   3   2   7    6.69    0.44 
   3   2   7    8.08    0.76 
   3   2   8    3.56    0.48 
   3   2   8    4.12    0.48 
   3   2   8    3.60    0.47 
   3   2   8    3.48    0.45 
   3   2   8    4.35    0.40 
   3   2   8    3.77    0.65 
   3   2   8    4.38    0.56 
   3   2   8    4.35    0.67 
   3   2   8    3.95    0.58 
   3   2   8    4.11    0.67 
   3   2   8    4.50    0.65 
   3   2   9   42.35    1.39 
   3   2   9   44.41    1.34 
   3   2   9   46.07    1.40 
   3   2   9   46.94    1.29 
   3   2   9   45.77    1.41 
   3   2   9   42.68    0.95 
   3   2   9   44.76    1.10 
   3   2  10    0.87    0.25 
   3   2  10    0.46    0.41 
   3   2  10    1.06    0.34 
   3   2  10    0.95    0.38 
   3   2  10    0.83    0.25 
   3   2  11    2.01    0.23 
   3   2  11    2.12    0.23 
   3   3 -11    0.44    0.19 
   3   3 -10    0.48    0.36 
   3   3 -10    0.10    0.35 
   3   3 -10    0.08    0.35 
   3   3  -9   20.37    0.84 
   3   3  -9   20.92    0.86 
   3   3  -9   17.34    0.65 
   3   3  -9   14.86    1.07 
   3   3  -9   13.12    1.03 
   3   3  -9   14.80    0.91 
   3   3  -8    7.16    0.91 
   3   3  -8    8.25    0.94 
   3   3  -8    5.20    0.68 
   3   3  -8    4.99    0.87 
   3   3  -8    4.80    0.84 
   3   3  -8    5.69    0.78 
   3   3  -8    6.11    0.54 
   3   3  -7   14.75    0.72 
   3   3  -7   12.84    1.06 
   3   3  -7   12.00    1.04 
   3   3  -7   13.26    1.12 
   3   3  -7   11.21    1.10 
   3   3  -7   13.03    1.13 
   3   3  -7   12.30    0.93 
   3   3  -7   12.52    1.06 
   3   3  -7   11.17    1.01 
   3   3  -7   14.18    1.02 
   3   3  -6    0.20    0.62 
   3   3  -6    0.30    0.64 
   3   3  -6    0.23    0.66 
   3   3  -6   -0.12    0.68 
   3   3  -6    0.63    0.48 
   3   3  -6   -0.45    0.92 
   3   3  -6    0.76    0.62 
   3   3  -6    0.64    0.60 
   3   3  -6    0.06    0.53 
   3   3  -6    1.36    0.67 
   3   3  -5    3.89    0.70 
   3   3  -5    3.72    0.69 
   3   3  -5    5.30    0.80 
   3   3  -5    5.58    0.71 
   3   3  -4    0.11    0.41 
   3   3  -4    0.21    0.53 
   3   3  -4    0.21    0.35 
   3   3  -4   -0.09    0.55 
   3   3  -4    0.26    0.40 
   3   3  -4    0.23    0.58 
   3   3  -3  133.41    2.33 
   3   3  -3  132.81    1.94 
   3   3  -2   43.32    1.15 
   3   3  -2   41.53    0.97 
   3   3  -1  389.46    4.00 
   3   3  -1  370.72    3.41 
   3   3   0    1.74    0.39 
   3   3   0    1.39    0.47 
   3   3   0    1.26    0.53 
   3   3   0    1.78    0.31 
   3   3   1    3.35    0.53 
   3   3   1    2.88    0.26 
   3   3   1    4.18    0.70 
   3   3   1    3.96    0.66 
   3   3   1    3.14    0.43 
   3   3   2   86.76    1.54 
   3   3   2  115.40    1.98 
   3   3   2  105.42    2.25 
   3   3   2   87.20    1.54 
   3   3   2  100.89    1.83 
   3   3   2  106.68    2.32 
   3   3   2  106.91    1.63 
   3   3   2  114.38    1.74 
   3   3   2  105.48    1.58 
   3   3   3  185.74    2.62 
   3   3   3  197.19    2.41 
   3   3   3  202.17    2.63 
   3   3   3  179.46    2.31 
   3   3   3  202.30    2.73 
   3   3   3  196.37    2.68 
   3   3   3  196.47    3.24 
   3   3   3  181.79    2.69 
   3   3   3  187.71    2.68 
   3   3   3  191.21    3.23 
   3   3   3  196.83    2.86 
   3   3   3  167.40    3.30 
   3   3   4   48.42    1.65 
   3   3   4   55.98    1.25 
   3   3   4   53.33    1.22 
   3   3   4   55.12    1.59 
   3   3   4   53.79    1.29 
   3   3   4   50.61    1.21 
   3   3   4   51.86    1.62 
   3   3   4   59.39    1.55 
   3   3   4   53.56    1.28 
   3   3   4   52.73    1.15 
   3   3   4   54.30    1.17 
   3   3   4   53.97    1.75 
   3   3   5   40.85    1.51 
   3   3   5   42.19    1.08 
   3   3   5   42.54    1.09 
   3   3   5   42.27    1.18 
   3   3   5   42.54    1.44 
   3   3   5   41.36    1.45 
   3   3   5   43.18    1.23 
   3   3   5   42.07    1.00 
   3   3   5   41.37    1.12 
   3   3   5   46.14    1.69 
   3   3   6   95.92    2.48 
   3   3   6   82.61    1.90 
   3   3   6   84.44    1.79 
   3   3   6   64.08    1.61 
   3   3   6   85.09    1.38 
   3   3   6   78.33    1.95 
   3   3   6   92.38    2.12 
   3   3   6   86.33    2.12 
   3   3   6   87.67    2.16 
   3   3   6   79.45    2.04 
   3   3   6  107.69    1.73 
   3   3   6  106.63    1.74 
   3   3   7    0.73    0.43 
   3   3   7    1.23    0.44 
   3   3   7    0.49    0.58 
   3   3   7    1.26    0.37 
   3   3   7    0.76    0.34 
   3   3   7    0.93    0.34 
   3   3   7    0.93    0.56 
   3   3   7    0.92    0.43 
   3   3   7    0.90    0.59 
   3   3   7    1.67    0.55 
   3   3   7    0.96    0.48 
   3   3   7    1.00    0.31 
   3   3   8  189.84    2.47 
   3   3   8  201.06    3.28 
   3   3   8  201.72    3.32 
   3   3   8  184.31    2.56 
   3   3   8  197.07    3.23 
   3   3   8  185.13    3.07 
   3   3   8  197.16    2.68 
   3   3   8  196.08    2.68 
   3   3   9    2.21    0.54 
   3   3   9    2.37    0.57 
   3   3   9    2.03    0.42 
   3   3   9    2.24    0.40 
   3   3   9    1.99    0.32 
   3   3   9    2.39    0.47 
   3   3  10    4.75    0.51 
   3   3  10    4.56    0.54 
   3   3  10    4.76    0.33 
   3   3  11   17.59    0.44 
   3   4 -10    2.82    0.38 
   3   4  -9    4.56    0.45 
   3   4  -9    4.78    0.46 
   3   4  -9    3.16    0.48 
   3   4  -9    4.23    0.41 
   3   4  -8    0.71    0.50 
   3   4  -8    0.66    0.50 
   3   4  -8    0.08    0.45 
   3   4  -8    0.49    0.52 
   3   4  -8    0.76    0.61 
   3   4  -8    0.44    0.59 
   3   4  -8   -0.15    0.59 
   3   4  -8    0.12    0.98 
   3   4  -8    0.21    0.46 
   3   4  -7    5.63    1.70 
   3   4  -7    4.44    0.87 
   3   4  -7    5.52    0.85 
   3   4  -7    5.52    0.81 
   3   4  -7    7.96    0.83 
   3   4  -7    7.54    0.56 
   3   4  -7    9.43    0.76 
   3   4  -7    9.99    0.75 
   3   4  -7    6.05    0.88 
   3   4  -6   13.82    1.01 
   3   4  -6   13.18    0.98 
   3   4  -6   17.93    1.12 
   3   4  -6   14.08    1.04 
   3   4  -6   20.83    1.00 
   3   4  -6   20.66    0.99 
   3   4  -6    9.79    0.94 
   3   4  -5    8.72    0.88 
   3   4  -5    6.61    0.74 
   3   4  -5    7.58    0.84 
   3   4  -5    8.77    0.77 
   3   4  -5    8.40    0.78 
   3   4  -5    6.11    0.73 
   3   4  -4   42.03    1.44 
   3   4  -4   46.89    1.24 
   3   4  -4   46.33    1.23 
   3   4  -4   36.03    1.19 
   3   4  -4   38.48    1.28 
   3   4  -4   36.40    1.12 
   3   4  -4   35.13    1.22 
   3   4  -3  123.23    2.20 
   3   4  -3  135.72    2.18 
   3   4  -3  130.20    2.10 
   3   4  -3  135.37    2.14 
   3   4  -3  145.43    2.49 
   3   4  -2   18.43    0.93 
   3   4  -2   17.37    0.81 
   3   4  -2   19.83    0.77 
   3   4  -2   19.46    0.82 
   3   4  -1   85.21    2.06 
   3   4  -1   88.83    2.01 
   3   4  -1   85.81    1.58 
   3   4   0  146.38    2.62 
   3   4   0  139.53    2.76 
   3   4   0  173.17    3.12 
   3   4   0  128.24    2.23 
   3   4   0  161.00    2.14 
   3   4   1   20.59    0.79 
   3   4   1   18.94    0.61 
   3   4   1   21.82    0.78 
   3   4   1   18.28    0.90 
   3   4   1   21.56    1.01 
   3   4   1   19.75    1.07 
   3   4   1   16.83    0.78 
   3   4   2    8.03    0.56 
   3   4   2   10.80    0.72 
   3   4   2    8.08    0.55 
   3   4   2    8.69    0.86 
   3   4   2   10.21    0.70 
   3   4   2   12.06    0.61 
   3   4   2   10.31    0.98 
   3   4   2    9.61    0.57 
   3   4   2    9.57    0.71 
   3   4   3    0.09    0.43 
   3   4   3   -0.10    0.43 
   3   4   3    0.22    0.33 
   3   4   3    0.14    0.48 
   3   4   3   -0.35    0.62 
   3   4   3    0.23    0.42 
   3   4   3    0.01    0.21 
   3   4   3    0.32    0.32 
   3   4   3    0.56    0.64 
   3   4   3    0.47    0.43 
   3   4   3   -0.09    0.60 
   3   4   4    3.26    0.73 
   3   4   4    4.56    0.53 
   3   4   4    5.15    0.56 
   3   4   4    4.13    0.41 
   3   4   4    4.58    0.70 
   3   4   4    3.62    0.66 
   3   4   4    4.86    0.53 
   3   4   4    4.04    0.73 
   3   4   4    3.97    0.70 
   3   4   4    4.69    0.78 
   3   4   4    3.82    0.71 
   3   4   4    4.97    0.46 
   3   4   4    5.20    0.47 
   3   4   4    5.36    0.58 
   3   4   5   10.77    0.90 
   3   4   5    8.90    0.80 
   3   4   5   11.73    0.83 
   3   4   5   12.73    0.70 
   3   4   5   13.10    0.71 
   3   4   5   11.72    0.56 
   3   4   5   14.36    0.81 
   3   4   5   15.23    1.08 
   3   4   5   12.38    0.94 
   3   4   5   11.74    0.72 
   3   4   5   11.14    0.97 
   3   4   5   14.47    0.95 
   3   4   6   -0.17    0.51 
   3   4   6   -0.01    0.43 
   3   4   6    0.40    0.43 
   3   4   6    0.45    0.49 
   3   4   6    0.34    0.55 
   3   4   6    0.21    0.53 
   3   4   6    0.05    0.49 
   3   4   6   -0.34    0.46 
   3   4   6   -0.12    0.56 
   3   4   6   -0.08    0.31 
   3   4   6   -0.02    0.26 
   3   4   7   22.82    0.86 
   3   4   7   23.14    0.87 
   3   4   7   16.47    0.95 
   3   4   7   16.03    1.17 
   3   4   7   21.93    0.68 
   3   4   7   23.63    1.14 
   3   4   7   20.64    1.00 
   3   4   7   21.08    0.89 
   3   4   7   20.98    1.10 
   3   4   8    3.89    0.51 
   3   4   8    4.45    0.67 
   3   4   8    4.17    0.51 
   3   4   8    3.72    0.38 
   3   4   8    3.84    0.38 
   3   4   8    4.03    0.50 
   3   4   8    3.67    0.49 
   3   4   9    0.25    0.19 
   3   4   9    0.73    0.45 
   3   4   9   -0.04    0.45 
   3   4   9    0.43    0.35 
   3   4   9    0.41    0.35 
   3   4   9    0.60    0.33 
   3   4   9    0.26    0.26 
   3   4  10    0.75    0.28 
   3   4  10    0.75    0.27 
   3   4  10    1.13    0.28 
   3   4  10    1.09    0.23 
   3   5  -9   38.61    0.75 
   3   5  -8   15.63    0.65 
   3   5  -8   15.43    0.61 
   3   5  -8   15.23    0.60 
   3   5  -8   14.12    0.70 
   3   5  -7   11.54    0.88 
   3   5  -7   15.84    0.71 
   3   5  -7   16.94    0.72 
   3   5  -7    8.93    0.93 
   3   5  -7   11.19    0.87 
   3   5  -7   12.24    0.86 
   3   5  -7   17.66    0.90 
   3   5  -6    4.67    0.74 
   3   5  -6    5.50    0.92 
   3   5  -6    4.62    0.72 
   3   5  -6    7.02    0.80 
   3   5  -6    6.89    0.62 
   3   5  -6    7.25    0.63 
   3   5  -6    6.64    0.81 
   3   5  -5   12.17    1.11 
   3   5  -5    8.00    0.81 
   3   5  -5    6.39    0.75 
   3   5  -5   10.26    0.88 
   3   5  -5   14.29    1.01 
   3   5  -5   14.50    2.52 
   3   5  -5    9.07    0.85 
   3   5  -5   10.66    0.62 
   3   5  -5   11.07    0.72 
   3   5  -5   11.02    0.72 
   3   5  -5    9.31    0.85 
   3   5  -5   11.07    1.01 
   3   5  -4  203.11    3.02 
   3   5  -4  147.88    2.64 
   3   5  -4  163.97    4.66 
   3   5  -4  149.54    2.89 
   3   5  -4  135.34    2.58 
   3   5  -4  168.34    2.99 
   3   5  -4  176.06    3.48 
   3   5  -4  140.73    2.81 
   3   5  -3   12.34    0.89 
   3   5  -3    8.94    0.74 
   3   5  -3   11.58    1.90 
   3   5  -3    9.18    0.80 
   3   5  -3    8.17    0.67 
   3   5  -3    9.43    0.77 
   3   5  -3    9.85    1.06 
   3   5  -3    9.56    0.77 
   3   5  -2  110.54    2.52 
   3   5  -2  105.43    2.26 
   3   5  -2  105.33    1.86 
   3   5  -2  114.24    2.02 
   3   5  -2  103.05    2.04 
   3   5  -1    8.34    0.77 
   3   5  -1    7.71    0.62 
   3   5  -1    7.31    0.83 
   3   5  -1    6.42    0.94 
   3   5  -1    6.00    0.65 
   3   5  -1    7.68    0.55 
   3   5  -1    7.25    0.62 
   3   5   0    4.07    0.74 
   3   5   0    4.62    0.76 
   3   5   0    3.73    0.59 
   3   5   0    4.23    0.70 
   3   5   0    4.74    0.61 
   3   5   0    5.16    0.49 
   3   5   0    5.20    0.43 
   3   5   0    4.12    0.30 
   3   5   0    5.68    0.38 
   3   5   1   11.32    0.48 
   3   5   1    7.71    0.78 
   3   5   1    9.36    0.67 
   3   5   1   10.13    0.54 
   3   5   1    8.25    1.03 
   3   5   1    9.06    1.02 
   3   5   1    8.72    0.40 
   3   5   1    6.64    0.70 
   3   5   1    9.59    0.84 
   3   5   1    7.06    0.71 
   3   5   1    8.91    0.88 
   3   5   1    8.01    0.74 
   3   5   1   11.74    0.70 
   3   5   2   61.16    1.68 
   3   5   2   63.45    1.37 
   3   5   2   48.35    1.40 
   3   5   2   67.65    1.77 
   3   5   2   48.38    1.45 
   3   5   2   60.80    1.83 
   3   5   2   59.03    1.68 
   3   5   2   48.05    1.66 
   3   5   2   62.62    1.16 
   3   5   2   58.92    2.00 
   3   5   2   63.92    2.06 
   3   5   2   78.39    1.63 
   3   5   2   63.44    1.12 
   3   5   3   44.71    0.95 
   3   5   3   33.06    1.32 
   3   5   3   45.28    1.41 
   3   5   3   44.08    1.10 
   3   5   3   44.80    1.40 
   3   5   3   41.98    1.53 
   3   5   3   46.19    1.53 
   3   5   3   42.74    1.66 
   3   5   3   46.30    1.71 
   3   5   3   52.76    1.31 
   3   5   3   34.96    1.38 
   3   5   4   -0.19    0.40 
   3   5   4   -0.08    0.21 
   3   5   4    0.47    0.56 
   3   5   4    0.16    0.44 
   3   5   4    0.26    0.45 
   3   5   4    0.23    0.36 
   3   5   4    0.09    0.57 
   3   5   4    0.11    0.48 
   3   5   4   -0.31    0.45 
   3   5   4   -0.07    0.56 
   3   5   4   -0.02    0.26 
   3   5   4    0.13    0.63 
   3   5   4   -0.18    0.46 
   3   5   4   -0.07    0.50 
   3   5   5   13.22    0.80 
   3   5   5   14.60    0.77 
   3   5   5   16.36    0.79 
   3   5   5   13.45    0.67 
   3   5   5   14.30    0.58 
   3   5   5   14.18    1.04 
   3   5   5   11.97    0.90 
   3   5   5   14.43    1.13 
   3   5   5   15.15    0.92 
   3   5   6    0.05    0.42 
   3   5   6    0.40    0.42 
   3   5   6   -0.04    0.34 
   3   5   6    0.14    0.29 
   3   5   6    0.31    0.56 
   3   5   6   -0.18    0.44 
   3   5   6    0.55    0.52 
   3   5   6   -0.08    0.46 
   3   5   6   -0.09    0.49 
   3   5   7   19.52    0.66 
   3   5   7   18.41    0.72 
   3   5   7   21.39    0.70 
   3   5   7   22.41    1.11 
   3   5   7   22.48    0.84 
   3   5   7   24.19    0.86 
   3   5   7   20.48    0.68 
   3   5   7   23.21    0.82 
   3   5   8   16.44    0.57 
   3   5   8   17.92    0.61 
   3   5   8   18.42    0.93 
   3   5   8   19.11    0.96 
   3   5   8   16.35    0.57 
   3   5   8   19.56    0.69 
   3   5   8   19.51    0.73 
   3   5   8   17.97    0.72 
   3   5   9   15.94    0.81 
   3   5   9   13.28    0.45 
   3   5   9   17.28    0.57 
   3   5   9   14.45    0.60 
   3   5   9   15.42    0.60 
   3   6  -9    0.18    0.16 
   3   6  -8    9.63    0.46 
   3   6  -8    8.26    0.44 
   3   6  -7    2.50    0.44 
   3   6  -7    2.45    0.43 
   3   6  -7    2.88    0.46 
   3   6  -6    5.49    0.76 
   3   6  -6    4.62    0.62 
   3   6  -6    6.77    0.50 
   3   6  -6    5.25    0.58 
   3   6  -5   21.47    1.28 
   3   6  -5   18.99    1.02 
   3   6  -5   26.00    1.06 
   3   6  -5   25.54    0.80 
   3   6  -4   31.36    1.52 
   3   6  -4   31.53    0.94 
   3   6  -4   33.46    0.99 
   3   6  -4   36.93    1.34 
   3   6  -4   36.16    1.23 
   3   6  -3  435.10    5.56 
   3   6  -3  457.13    5.25 
   3   6  -3  510.96    5.65 
   3   6  -3  445.94    6.25 
   3   6  -3  353.45    5.24 
   3   6  -3  403.88    6.49 
   3   6  -3  397.81    5.71 
   3   6  -3  424.10    4.67 
   3   6  -3  429.32    4.74 
   3   6  -2   22.41    1.09 
   3   6  -2   19.62    1.30 
   3   6  -2   23.67    1.11 
   3   6  -2   21.74    0.97 
   3   6  -2   20.90    0.79 
   3   6  -2   16.89    1.37 
   3   6  -2   18.17    1.12 
   3   6  -1   48.21    1.30 
   3   6  -1   54.01    1.08 
   3   6  -1   40.39    1.88 
   3   6  -1   50.74    1.13 
   3   6  -1   43.19    1.57 
   3   6   0   40.35    1.37 
   3   6   0   33.07    1.38 
   3   6   0   29.97    1.35 
   3   6   0   38.29    1.20 
   3   6   0   32.89    1.00 
   3   6   0   26.10    1.48 
   3   6   0   19.85    1.63 
   3   6   0   37.53    0.95 
   3   6   0   17.33    1.29 
   3   6   0   31.88    1.52 
   3   6   0   16.36    1.26 
   3   6   0   40.91    0.93 
   3   6   1   24.40    1.16 
   3   6   1   24.09    1.16 
   3   6   1   25.02    0.98 
   3   6   1   31.25    0.84 
   3   6   1   24.13    0.82 
   3   6   1   22.13    1.33 
   3   6   1   17.15    1.42 
   3   6   1   14.46    1.04 
   3   6   1   23.80    1.25 
   3   6   1   11.94    1.03 
   3   6   1   23.75    1.21 
   3   6   1   29.28    1.20 
   3   6   2    5.95    0.70 
   3   6   2    5.19    0.69 
   3   6   2    4.35    0.66 
   3   6   2    5.29    0.57 
   3   6   2    6.92    0.51 
   3   6   2    4.91    0.46 
   3   6   2    4.69    0.81 
   3   6   2    2.80    0.83 
   3   6   2    5.75    0.40 
   3   6   2    4.75    0.70 
   3   6   2    5.95    0.71 
   3   6   3   23.10    1.03 
   3   6   3   23.84    1.02 
   3   6   3   23.28    1.02 
   3   6   3   21.24    0.84 
   3   6   3   22.86    0.73 
   3   6   3   19.81    1.10 
   3   6   3   19.35    0.71 
   3   6   3   15.02    1.26 
   3   6   3   19.86    1.19 
   3   6   3   27.32    0.82 
   3   6   3   22.89    0.69 
   3   6   3   22.06    1.11 
   3   6   4    5.39    0.69 
   3   6   4    5.08    0.51 
   3   6   4    5.35    0.41 
   3   6   4    5.14    0.76 
   3   6   4    4.72    0.56 
   3   6   4    6.00    0.44 
   3   6   5    6.61    0.54 
   3   6   5    5.66    0.75 
   3   6   5    5.82    0.50 
   3   6   5    6.64    0.69 
   3   6   5    6.73    0.46 
   3   6   6   41.50    1.17 
   3   6   6   54.85    1.10 
   3   6   6   51.26    1.55 
   3   6   6   45.76    1.06 
   3   6   6   51.42    1.53 
   3   6   6   57.77    1.29 
   3   6   6   57.44    1.29 
   3   6   7    8.38    0.65 
   3   6   7    7.32    0.70 
   3   6   7    7.96    0.48 
   3   6   7    7.32    0.45 
   3   6   7    7.09    0.52 
   3   6   7    7.59    0.53 
   3   6   7    6.20    0.41 
   3   6   8    5.31    0.37 
   3   6   8    4.63    0.42 
   3   6   8    4.77    0.42 
   3   7  -7    0.06    0.28 
   3   7  -6    1.49    0.34 
   3   7  -6    1.63    0.41 
   3   7  -6    0.76    0.36 
   3   7  -5    2.49    0.43 
   3   7  -5    2.68    0.50 
   3   7  -5    1.84    0.42 
   3   7  -4   12.61    0.64 
   3   7  -4   13.93    0.67 
   3   7  -4   11.89    0.74 
   3   7  -4   10.24    0.89 
   3   7  -4   11.95    0.72 
   3   7  -3   33.77    1.11 
   3   7  -3   27.33    1.10 
   3   7  -3   27.89    1.09 
   3   7  -3   29.51    1.41 
   3   7  -3   39.34    1.00 
   3   7  -3   39.44    1.04 
   3   7  -3   41.36    1.23 
   3   7  -2    1.89    0.57 
   3   7  -2    1.27    0.47 
   3   7  -2    1.09    0.59 
   3   7  -2    0.12    0.58 
   3   7  -2    1.61    0.51 
   3   7  -2    1.37    0.69 
   3   7  -1   15.07    0.67 
   3   7  -1   18.18    0.71 
   3   7  -1   13.34    0.73 
   3   7  -1   10.69    0.88 
   3   7  -1   11.27    0.88 
   3   7  -1   17.31    0.76 
   3   7  -1   12.23    1.04 
   3   7   0   -0.05    0.39 
   3   7   0    0.06    0.60 
   3   7   0    0.28    0.52 
   3   7   0    0.22    0.52 
   3   7   0    0.15    0.52 
   3   7   0   -0.23    0.47 
   3   7   0    0.63    0.43 
   3   7   0   -0.14    0.43 
   3   7   1    5.81    0.53 
   3   7   1    5.67    0.50 
   3   7   1    3.44    0.46 
   3   7   1    3.76    0.75 
   3   7   1    4.32    0.63 
   3   7   1    4.11    0.63 
   3   7   1    5.68    0.60 
   3   7   1    4.10    0.55 
   3   7   2   -0.07    0.40 
   3   7   2   -0.19    0.42 
   3   7   2    0.01    0.58 
   3   7   2    0.12    0.34 
   3   7   2   -0.17    0.49 
   3   7   2    0.27    0.48 
   3   7   2    0.02    0.48 
   3   7   2   -0.06    0.53 
   3   7   3   15.79    0.74 
   3   7   3   11.94    0.78 
   3   7   3   17.83    0.86 
   3   7   3   18.38    0.87 
   3   7   3   14.24    0.62 
   3   7   3   11.54    1.07 
   3   7   3   17.67    0.70 
   3   7   3    9.13    0.80 
   3   7   3   13.51    0.94 
   3   7   4   15.47    0.76 
   3   7   4   16.59    0.77 
   3   7   4   12.88    0.89 
   3   7   4   13.86    0.95 
   3   7   4   13.33    0.66 
   3   7   5   39.56    1.00 
   3   7   5   45.14    1.43 
   3   7   5   47.36    1.16 
   3   7   5   47.18    1.16 
   3   7   5   38.14    1.33 
   3   7   5   35.98    1.03 
   3   7   6    2.11    0.40 
   3   7   6    2.09    0.33 
   3   7   6    1.88    0.47 
   3   8  -5    0.60    0.30 
   3   8  -4    0.28    0.35 
   3   8  -4    0.01    0.41 
   3   8  -4    0.15    0.31 
   3   8  -3    1.68    0.38 
   3   8  -3    2.09    0.39 
   3   8  -3    2.81    0.44 
   3   8  -3    3.29    0.45 
   3   8  -2    7.49    0.54 
   3   8  -2    5.97    0.53 
   3   8  -1    1.97    0.42 
   3   8  -1    0.80    0.38 
   3   8  -1    0.95    0.53 
   3   8  -1    2.27    0.49 
   3   8  -1    1.76    0.44 
   3   8   0    1.14    0.43 
   3   8   0    0.93    0.44 
   3   8   0    0.13    0.35 
   3   8   0    1.09    0.50 
   3   8   0    0.71    0.52 
   3   8   1    0.10    0.38 
   3   8   1    1.13    0.44 
   3   8   1    0.65    0.42 
   3   8   1    0.64    0.33 
   3   8   1    0.06    0.39 
   3   8   1    0.34    0.39 
   3   8   1    0.52    0.48 
   3   8   1    1.13    0.51 
   3   8   2    0.82    0.33 
   3   8   2    1.92    0.44 
   3   8   2    1.07    0.42 
   3   8   2    0.26    0.45 
   3   8   2    1.72    0.44 
   3   8   2    1.52    0.39 
   3   8   3   58.12    1.21 
   3   8   3   58.60    1.23 
   3   8   3   44.12    1.22 
   3   8   3   61.58    1.14 
   3   8   3   41.12    1.20 
   3   8   3   45.89    1.11 
   3   8   4    0.51    0.36 
   3   8   4    0.91    0.35 
   3   8   4    0.77    0.42 
   3   8   4    0.77    0.39 
   3   8   4    0.22    0.31 
   3   8   5    5.08    0.41 
   3   8   5    4.77    0.41 
   3   8   5    3.65    0.35 
   3   8   6    1.67    0.33 
   3   9  -2   25.95    0.64 
   3   9  -1    0.21    0.33 
   3   9  -1    0.09    0.33 
   3   9   0    0.70    0.28 
   3   9   2   24.53    0.65 
   3   9   2   25.56    0.67 
   3   9   3    0.70    0.32 
   4  -7  -2   23.02    0.64 
   4  -7  -1    2.02    0.28 
   4  -7  -1    2.02    0.28 
   4  -7   0    1.45    0.28 
   4  -7   0    1.39    0.27 
   4  -7   1    1.42    0.23 
   4  -7   2    1.21    0.23 
   4  -7   2    1.29    0.24 
   4  -7   3    0.26    0.19 
   4  -7   3    0.37    0.20 
   4  -7   3    0.40    0.21 
   4  -7   4    1.67    0.22 
   4  -7   4    1.53    0.21 
   4  -6  -5    8.88    0.50 
   4  -6  -3    0.20    0.41 
   4  -6  -1    0.28    1.54 
   4  -6  -1    0.80    2.01 
   4  -6  -1   -0.34    2.05 
   4  -6   0    1.32    1.10 
   4  -6   0    0.93    0.25 
   4  -6   1   37.95    0.78 
   4  -6   1   36.80    1.08 
   4  -6   2   53.67    1.34 
   4  -6   2   58.22    1.03 
   4  -6   2   54.46    1.35 
   4  -6   2   57.46    1.26 
   4  -6   3    3.70    0.42 
   4  -6   3    3.99    0.35 
   4  -6   3    3.88    0.41 
   4  -6   3    3.78    0.43 
   4  -6   3    3.87    0.43 
   4  -6   4    0.48    0.27 
   4  -6   4    0.83    0.28 
   4  -6   4    0.86    0.32 
   4  -6   4    0.87    0.26 
   4  -6   4    0.78    0.21 
   4  -6   5   15.23    0.66 
   4  -6   5   14.22    0.50 
   4  -6   5   14.62    0.46 
   4  -6   6   15.11    0.47 
   4  -6   6   15.11    0.47 
   4  -6   6   13.63    0.42 
   4  -6   7    1.50    0.16 
   4  -5  -4   10.23    1.70 
   4  -5  -4   12.62    1.80 
   4  -5  -3    4.90    1.39 
   4  -5  -3    5.88    1.46 
   4  -5  -2    0.80    0.88 
   4  -5  -2    0.67    0.92 
   4  -5  -1   -0.77    0.79 
   4  -5  -1   -0.45    0.75 
   4  -5   0   30.78    1.37 
   4  -5   0   30.62    1.38 
   4  -5   0   44.15    1.30 
   4  -5   0   41.11    1.19 
   4  -5   0   43.94    1.21 
   4  -5   1   23.03    0.86 
   4  -5   1   17.62    1.09 
   4  -5   1   16.70    1.07 
   4  -5   1   21.01    0.91 
   4  -5   1   17.07    1.46 
   4  -5   1   14.21    0.96 
   4  -5   2   19.92    1.11 
   4  -5   2   20.93    1.12 
   4  -5   2   21.14    0.89 
   4  -5   2   21.10    0.87 
   4  -5   2   21.48    1.24 
   4  -5   3   15.01    0.79 
   4  -5   3   14.07    0.92 
   4  -5   3   13.63    0.93 
   4  -5   3   13.60    0.55 
   4  -5   3   14.07    0.75 
   4  -5   4    9.18    0.65 
   4  -5   4    7.79    0.73 
   4  -5   4    7.67    0.75 
   4  -5   4    8.40    0.62 
   4  -5   4    9.14    0.47 
   4  -5   5    0.68    0.38 
   4  -5   5    0.43    0.34 
   4  -5   5    0.70    0.26 
   4  -5   6   15.54    0.50 
   4  -5   6   15.46    0.56 
   4  -5   6   14.68    0.73 
   4  -5   7   10.04    0.39 
   4  -5   7   10.29    0.43 
   4  -5   7   11.25    0.45 
   4  -5   8    1.28    0.16 
   4  -4  -5    0.43    0.60 
   4  -4  -4   11.87    0.94 
   4  -4  -3   14.15    1.00 
   4  -4  -2    0.61    0.63 
   4  -4  -2    0.46    0.33 
   4  -4  -1   61.05    2.86 
   4  -4  -1   62.59    3.08 
   4  -4   0    3.56    0.90 
   4  -4   0    4.16    0.99 
   4  -4   1   81.93    1.94 
   4  -4   1   82.73    1.95 
   4  -4   2   52.12    1.61 
   4  -4   2   51.88    1.60 
   4  -4   2   52.22    1.43 
   4  -4   3    0.21    0.45 
   4  -4   3    0.20    0.29 
   4  -4   3    0.04    0.30 
   4  -4   3    0.09    0.49 
   4  -4   3    0.25    0.50 
   4  -4   3    0.02    0.30 
   4  -4   3    0.45    0.41 
   4  -4   3    0.02    0.46 
   4  -4   4    7.73    0.62 
   4  -4   4    8.83    0.54 
   4  -4   4    9.51    0.79 
   4  -4   4    9.54    0.80 
   4  -4   4    9.49    0.72 
   4  -4   5   41.52    1.07 
   4  -4   5   40.99    1.35 
   4  -4   5   42.64    1.36 
   4  -4   5   42.30    1.42 
   4  -4   5   41.61    1.42 
   4  -4   6    1.14    0.33 
   4  -4   7    4.26    0.50 
   4  -4   7    4.31    0.37 
   4  -4   7    4.88    0.53 
   4  -4   8   11.46    0.37 
   4  -4   8   13.90    0.51 
   4  -3  -7   28.09    1.36 
   4  -3  -5   26.38    1.31 
   4  -3  -4    0.88    0.52 
   4  -3  -2    0.28    0.30 
   4  -3   1   76.32    1.80 
   4  -3   1   73.71    1.76 
   4  -3   2   66.22    1.85 
   4  -3   2   72.29    1.75 
   4  -3   2   70.91    1.75 
   4  -3   2   65.52    1.73 
   4  -3   2   71.64    1.63 
   4  -3   3   24.98    1.06 
   4  -3   3   25.82    1.07 
   4  -3   3   26.87    1.16 
   4  -3   3   22.07    1.10 
   4  -3   3   23.26    0.99 
   4  -3   4    0.94    0.50 
   4  -3   4    1.03    0.49 
   4  -3   4    0.94    0.47 
   4  -3   4    0.89    0.41 
   4  -3   4    0.71    0.35 
   4  -3   4    0.58    0.52 
   4  -3   5    7.07    0.54 
   4  -3   5    6.82    0.62 
   4  -3   5    7.19    0.67 
   4  -3   5    7.41    0.68 
   4  -3   5    6.64    0.70 
   4  -3   5    5.13    0.59 
   4  -3   5    6.46    0.64 
   4  -3   5    8.00    0.74 
   4  -3   6  106.34    1.83 
   4  -3   6   98.45    1.66 
   4  -3   6   91.56    1.97 
   4  -3   6   84.33    1.98 
   4  -3   6   83.44    1.98 
   4  -3   6   98.79    2.16 
   4  -3   6   81.78    2.07 
   4  -3   7   12.66    0.62 
   4  -3   7   11.58    0.56 
   4  -3   7   11.10    0.76 
   4  -3   7   10.69    0.75 
   4  -3   7   11.10    0.69 
   4  -3   7   11.43    0.78 
   4  -3   8   16.65    0.78 
   4  -3   8   17.04    0.76 
   4  -3   8   16.05    0.80 
   4  -3   8   15.11    0.74 
   4  -3   8   15.91    0.63 
   4  -3   8   15.37    0.57 
   4  -3   8   15.06    0.61 
   4  -3   9   13.36    0.50 
   4  -3   9   14.10    0.46 
   4  -3   9   14.45    0.49 
   4  -3  10    2.26    0.20 
   4  -2  -9    7.36    0.61 
   4  -2  -8    0.35    0.43 
   4  -2  -8    0.07    0.44 
   4  -2  -8    0.92    0.57 
   4  -2  -7    4.37    0.72 
   4  -2  -6   23.05    1.08 
   4  -2  -6   22.78    1.14 
   4  -2  -5    5.09    0.68 
   4  -2  -4    2.87    0.56 
   4  -2   0   27.29    0.93 
   4  -2   1    4.61    0.48 
   4  -2   1    4.67    0.48 
   4  -2   1    4.47    0.49 
   4  -2   2   68.71    1.54 
   4  -2   2   69.54    1.55 
   4  -2   2   71.91    1.62 
   4  -2   2   64.78    1.66 
   4  -2   2   65.41    1.55 
   4  -2   3   13.76    0.79 
   4  -2   3   11.97    0.79 
   4  -2   3   11.57    0.69 
   4  -2   3   13.01    0.95 
   4  -2   3   12.90    0.86 
   4  -2   3   13.47    0.73 
   4  -2   3   12.24    0.72 
   4  -2   4    2.39    0.69 
   4  -2   4    1.78    0.46 
   4  -2   4    1.83    0.45 
   4  -2   4    1.81    0.40 
   4  -2   4    2.11    0.50 
   4  -2   4    2.75    0.51 
   4  -2   4    1.52    0.37 
   4  -2   4    2.25    0.61 
   4  -2   4    2.00    0.56 
   4  -2   5   31.64    1.08 
   4  -2   5   28.89    1.15 
   4  -2   5   30.06    1.23 
   4  -2   5   24.58    1.01 
   4  -2   5   25.27    1.02 
   4  -2   5   27.82    1.17 
   4  -2   5   26.12    1.09 
   4  -2   5   25.47    1.16 
   4  -2   5   23.61    0.98 
   4  -2   5   32.33    1.40 
   4  -2   6   53.35    1.33 
   4  -2   6   45.44    1.38 
   4  -2   6   48.15    1.54 
   4  -2   6   41.54    1.30 
   4  -2   6   41.14    1.29 
   4  -2   6   42.89    1.44 
   4  -2   6   40.94    1.35 
   4  -2   6   45.60    1.47 
   4  -2   6   54.37    1.73 
   4  -2   7   31.46    1.25 
   4  -2   7   27.23    1.04 
   4  -2   7   26.35    1.03 
   4  -2   7   31.23    1.24 
   4  -2   7   34.33    1.03 
   4  -2   7   35.04    1.03 
   4  -2   7   35.07    1.36 
   4  -2   8   52.76    1.19 
   4  -2   8   52.40    1.35 
   4  -2   8   53.43    1.57 
   4  -2   8   49.77    1.48 
   4  -2   8   50.51    1.41 
   4  -2   9    0.48    0.26 
   4  -2   9    0.26    0.24 
   4  -2   9    0.37    0.33 
   4  -2   9    0.43    0.23 
   4  -2   9    0.18    0.31 
   4  -2  10    1.09    0.21 
   4  -2  10    1.24    0.21 
   4  -2  10    1.14    0.22 
   4  -2  11   10.32    0.24 
   4  -1  -9    0.57    0.45 
   4  -1  -8    0.11    0.57 
   4  -1  -8    0.36    0.58 
   4  -1  -7   -0.42    0.64 
   4  -1  -7    0.60    0.67 
   4  -1  -7    0.02    0.63 
   4  -1  -7   -0.09    0.55 
   4  -1  -6    9.04    0.88 
   4  -1  -6    8.31    0.86 
   4  -1  -6    8.38    0.83 
   4  -1  -5    1.83    0.53 
   4  -1  -4    7.18    0.58 
   4  -1  -3   53.71    1.20 
   4  -1   0   66.91    1.34 
   4  -1   1   86.39    1.60 
   4  -1   1   86.30    1.59 
   4  -1   1   96.37    1.78 
   4  -1   1   93.43    1.71 
   4  -1   1  103.32    2.02 
   4  -1   2  117.06    1.93 
   4  -1   2  114.91    1.92 
   4  -1   2  129.45    2.18 
   4  -1   2  107.65    2.05 
   4  -1   2  116.07    2.07 
   4  -1   2  129.36    2.44 
   4  -1   3   10.13    0.59 
   4  -1   3    9.67    0.58 
   4  -1   3   10.79    1.03 
   4  -1   3   11.79    0.70 
   4  -1   3   10.00    0.66 
   4  -1   3    9.90    0.60 
   4  -1   3   11.91    0.86 
   4  -1   4    3.56    0.45 
   4  -1   4    4.05    0.48 
   4  -1   4    3.36    0.53 
   4  -1   4    4.83    0.67 
   4  -1   4    4.98    0.54 
   4  -1   4    4.13    0.60 
   4  -1   4    4.60    0.49 
   4  -1   4    4.32    0.72 
   4  -1   4    4.41    0.79 
   4  -1   5   63.69    1.89 
   4  -1   5   49.78    1.34 
   4  -1   5   50.83    1.34 
   4  -1   5   57.60    1.56 
   4  -1   5   53.01    1.53 
   4  -1   5   54.56    1.77 
   4  -1   5   52.88    1.57 
   4  -1   5   59.03    2.12 
   4  -1   6  174.38    2.71 
   4  -1   6  168.31    3.02 
   4  -1   6  158.65    3.19 
   4  -1   6  132.49    2.43 
   4  -1   6  134.34    2.43 
   4  -1   6  149.67    2.90 
   4  -1   6  142.91    2.74 
   4  -1   6  147.85    2.75 
   4  -1   6  167.47    3.41 
   4  -1   7   61.96    1.47 
   4  -1   7   57.84    1.67 
   4  -1   7   61.36    1.81 
   4  -1   7   47.84    1.35 
   4  -1   7   46.41    1.33 
   4  -1   7   62.18    1.89 
   4  -1   7   56.48    1.80 
   4  -1   7   53.03    1.68 
   4  -1   7   50.78    1.53 
   4  -1   8   41.15    1.11 
   4  -1   8   42.67    1.13 
   4  -1   8   42.43    1.47 
   4  -1   8   36.52    1.27 
   4  -1   8   40.27    1.42 
   4  -1   8   37.73    1.24 
   4  -1   9   -0.01    0.26 
   4  -1   9    0.07    0.29 
   4  -1   9    0.25    0.37 
   4  -1   9    0.15    0.37 
   4  -1   9    0.37    0.26 
   4  -1   9    0.12    0.23 
   4  -1  10   11.12    0.43 
   4  -1  10   10.40    0.45 
   4  -1  10    9.55    0.37 
   4  -1  11   32.97    0.52 
   4   0 -10    0.46    0.98 
   4   0 -10    0.22    0.96 
   4   0  -9    1.65    0.72 
   4   0  -9    2.33    0.72 
   4   0  -8   81.16    1.54 
   4   0  -8   83.73    2.41 
   4   0  -8   79.52    2.37 
   4   0  -8   77.42    2.09 
   4   0  -8   85.83    2.07 
   4   0  -7    7.13    0.95 
   4   0  -7    6.66    0.90 
   4   0  -7    8.29    0.79 
   4   0  -7    7.84    0.82 
   4   0  -7    7.61    0.94 
   4   0  -6   13.21    1.03 
   4   0  -6   16.94    0.95 
   4   0  -6   13.06    0.99 
   4   0  -6   16.75    0.97 
   4   0  -6   15.55    1.04 
   4   0  -5   25.97    1.05 
   4   0  -5   24.61    1.09 
   4   0  -5   24.82    1.07 
   4   0  -4   13.78    0.72 
   4   0  -4   15.43    0.77 
   4   0  -4   14.11    0.76 
   4   0  -2    1.97    0.32 
   4   0   0   51.19    1.22 
   4   0   0   51.64    1.16 
   4   0   0   50.52    1.02 
   4   0   1   76.34    1.90 
   4   0   1   96.93    1.68 
   4   0   1   88.84    1.55 
   4   0   1   71.35    1.69 
   4   0   2   12.12    0.94 
   4   0   2   14.20    0.71 
   4   0   2   12.38    0.61 
   4   0   2   11.54    0.74 
   4   0   3   65.45    1.92 
   4   0   3   66.64    1.75 
   4   0   3   68.22    1.55 
   4   0   3   65.62    1.51 
   4   0   3   63.63    1.93 
   4   0   4    3.43    0.71 
   4   0   4    2.24    0.36 
   4   0   4    2.30    0.36 
   4   0   4    2.49    0.71 
   4   0   4    2.58    0.58 
   4   0   4    2.88    0.83 
   4   0   4    2.67    0.43 
   4   0   4    2.63    0.39 
   4   0   5   12.76    0.89 
   4   0   5   12.30    0.88 
   4   0   5   11.62    0.62 
   4   0   5   10.71    0.60 
   4   0   5   11.99    0.96 
   4   0   5   13.93    1.11 
   4   0   5   12.81    0.74 
   4   0   5   12.66    0.92 
   4   0   5   11.78    0.73 
   4   0   6   36.91    1.17 
   4   0   6   30.54    1.31 
   4   0   6   31.00    1.17 
   4   0   6   27.75    0.96 
   4   0   6   33.77    1.47 
   4   0   6   32.08    1.52 
   4   0   6   28.51    1.13 
   4   0   6   32.07    1.48 
   4   0   6   34.12    1.43 
   4   0   6   30.19    1.14 
   4   0   7   73.25    1.69 
   4   0   7   64.16    1.80 
   4   0   7   74.32    1.50 
   4   0   7   62.65    1.73 
   4   0   7   68.65    2.08 
   4   0   7   63.66    1.70 
   4   0   7   69.99    2.05 
   4   0   7   75.91    2.02 
   4   0   7   75.44    2.09 
   4   0   8   41.67    1.14 
   4   0   8   44.57    1.08 
   4   0   8   43.44    1.46 
   4   0   8   40.31    0.94 
   4   0   9   24.18    0.76 
   4   0   9   26.72    1.11 
   4   0   9   23.31    0.66 
   4   0   9   24.97    0.73 
   4   0   9   24.83    1.02 
   4   0  10    2.29    0.26 
   4   0  10    2.57    0.39 
   4   0  11   25.86    0.47 
   4   1  -9   27.97    1.27 
   4   1  -9   25.81    1.25 
   4   1  -8   32.51    1.59 
   4   1  -8   28.92    1.54 
   4   1  -8   32.17    1.32 
   4   1  -8   21.70    1.10 
   4   1  -8   19.40    1.09 
   4   1  -7    7.30    0.95 
   4   1  -7    9.01    1.03 
   4   1  -7    8.67    0.96 
   4   1  -7    6.81    0.90 
   4   1  -7    7.55    0.80 
   4   1  -6   13.51    1.10 
   4   1  -6   14.45    1.10 
   4   1  -6   16.10    0.92 
   4   1  -6   17.26    1.01 
   4   1  -6   15.28    1.05 
   4   1  -6   17.77    1.12 
   4   1  -5   43.86    1.75 
   4   1  -5   46.59    1.77 
   4   1  -5   46.22    1.78 
   4   1  -5   55.59    1.56 
   4   1  -5   55.90    1.56 
   4   1  -5   51.69    1.53 
   4   1  -4   13.98    0.96 
   4   1  -4   12.67    0.79 
   4   1  -4   15.03    0.79 
   4   1  -3    3.74    0.63 
   4   1  -3    3.54    0.48 
   4   1  -3    3.90    0.37 
   4   1  -2    5.46    0.42 
   4   1  -2    4.84    0.63 
   4   1  -1   13.27    0.59 
   4   1  -1   14.07    0.85 
   4   1   0  358.86    4.74 
   4   1   1  118.75    1.77 
   4   1   1  113.52    1.69 
   4   1   2  127.76    1.98 
   4   1   2  130.42    2.62 
   4   1   3   11.45    0.59 
   4   1   3   10.02    0.78 
   4   1   3   11.03    0.59 
   4   1   3   10.79    0.94 
   4   1   3    9.11    0.98 
   4   1   3   10.37    0.86 
   4   1   4    3.37    0.73 
   4   1   4    3.30    0.63 
   4   1   4    3.31    0.40 
   4   1   4    3.45    0.42 
   4   1   4    3.01    0.82 
   4   1   4    2.47    0.74 
   4   1   4    3.09    0.62 
   4   1   5  269.80    4.54 
   4   1   5  271.66    3.83 
   4   1   5  275.50    4.13 
   4   1   5  265.02    4.27 
   4   1   5  279.66    3.86 
   4   1   5  276.42    4.45 
   4   1   5  251.39    3.77 
   4   1   5  246.30    3.63 
   4   1   6  119.71    2.71 
   4   1   6   98.66    1.61 
   4   1   6  119.43    2.87 
   4   1   6  110.10    2.18 
   4   1   6  114.36    2.40 
   4   1   6  111.01    2.51 
   4   1   6  126.47    2.23 
   4   1   6  104.96    2.24 
   4   1   6  120.96    2.82 
   4   1   6  105.95    2.15 
   4   1   7   79.30    2.11 
   4   1   7   72.22    2.00 
   4   1   7   69.85    1.82 
   4   1   7   71.50    2.17 
   4   1   7   81.79    2.32 
   4   1   7   67.85    1.73 
   4   1   7   77.78    1.89 
   4   1   7   58.93    2.24 
   4   1   7   86.19    1.70 
   4   1   7   67.77    1.27 
   4   1   8    0.41    0.33 
   4   1   8    0.29    0.40 
   4   1   8    0.11    0.44 
   4   1   8   -0.02    0.50 
   4   1   8    0.39    0.49 
   4   1   8    0.07    0.28 
   4   1   8    0.35    0.49 
   4   1   8    0.13    0.49 
   4   1   9   46.30    1.04 
   4   1   9   46.29    1.40 
   4   1   9   43.16    1.36 
   4   1   9   47.19    1.44 
   4   1   9   41.24    0.87 
   4   1  10   16.51    0.48 
   4   1  10   16.83    0.58 
   4   1  10   16.74    0.56 
   4   1  11    0.38    0.15 
   4   2  -9    0.31    0.65 
   4   2  -9    0.08    0.65 
   4   2  -8   15.79    1.20 
   4   2  -8   13.36    1.13 
   4   2  -8   16.30    0.98 
   4   2  -8   13.10    0.96 
   4   2  -8   13.12    1.01 
   4   2  -7   11.66    1.05 
   4   2  -7   10.58    1.02 
   4   2  -7   12.03    0.94 
   4   2  -7    6.99    0.74 
   4   2  -7    6.34    0.75 
   4   2  -7   11.09    1.07 
   4   2  -6    1.07    0.69 
   4   2  -6    0.21    0.61 
   4   2  -6    0.43    0.58 
   4   2  -6    0.11    0.70 
   4   2  -6    0.15    0.69 
   4   2  -6    0.65    0.59 
   4   2  -6    0.57    0.60 
   4   2  -5   99.13    2.75 
   4   2  -5   98.31    2.72 
   4   2  -5   97.17    2.20 
   4   2  -5   92.30    2.13 
   4   2  -5  102.37    2.24 
   4   2  -4   32.70    1.21 
   4   2  -4   33.72    1.16 
   4   2  -4   30.15    1.11 
   4   2  -3   11.20    0.56 
   4   2  -3   11.03    0.66 
   4   2  -2  228.47    3.05 
   4   2  -2  299.52    4.54 
   4   2  -1   37.91    0.97 
   4   2  -1   27.29    1.36 
   4   2   0  121.37    1.93 
   4   2   0  119.58    2.10 
   4   2   1   -0.13    0.38 
   4   2   1    0.77    0.52 
   4   2   1    0.57    0.32 
   4   2   1    1.00    0.41 
   4   2   2  120.39    2.58 
   4   2   2  121.23    1.98 
   4   2   2  122.27    1.89 
   4   2   3   80.64    2.47 
   4   2   3   61.71    2.12 
   4   2   3   95.60    2.29 
   4   2   3   74.96    1.74 
   4   2   3   75.65    1.72 
   4   2   3   92.42    1.70 
   4   2   3   84.36    2.15 
   4   2   3   96.27    1.80 
   4   2   3   98.53    1.58 
   4   2   4    4.04    0.82 
   4   2   4    3.41    0.68 
   4   2   4    3.72    0.75 
   4   2   4    3.83    0.65 
   4   2   4    4.01    0.43 
   4   2   4    4.02    0.48 
   4   2   4    4.14    0.40 
   4   2   4    3.22    0.48 
   4   2   4    4.02    0.50 
   4   2   5    2.45    0.46 
   4   2   5    2.76    0.45 
   4   2   5    3.43    0.68 
   4   2   5    2.38    0.75 
   4   2   5    2.57    0.71 
   4   2   5    2.27    0.75 
   4   2   5    2.42    0.73 
   4   2   5    2.98    0.42 
   4   2   5    2.35    0.38 
   4   2   5    2.88    0.47 
   4   2   6  307.93    4.98 
   4   2   6  315.11    4.78 
   4   2   6  313.69    5.01 
   4   2   6  305.19    4.34 
   4   2   6  301.31    4.14 
   4   2   7    0.05    0.59 
   4   2   7   -0.37    0.59 
   4   2   7   -0.48    0.46 
   4   2   7    0.22    0.31 
   4   2   7    0.22    0.45 
   4   2   7    0.19    0.29 
   4   2   7    0.27    0.53 
   4   2   7   -0.03    0.53 
   4   2   7   -0.23    0.60 
   4   2   7    0.19    0.28 
   4   2   8   14.28    0.67 
   4   2   8   12.28    0.87 
   4   2   8   27.23    0.92 
   4   2   8   24.43    1.08 
   4   2   8   24.23    1.10 
   4   2   8   24.68    1.02 
   4   2   8   21.55    0.65 
   4   2   8   24.20    1.16 
   4   2   9    0.11    0.31 
   4   2   9    1.49    0.40 
   4   2   9    1.17    0.48 
   4   2   9    1.06    0.37 
   4   2   9    1.35    0.41 
   4   2   9    1.03    0.26 
   4   2  10    1.08    0.22 
   4   2  10    1.01    0.23 
   4   2  10    1.11    0.30 
   4   2  11    0.11    0.14 
   4   3  -9   40.00    0.93 
   4   3  -9   44.12    0.94 
   4   3  -8    7.55    0.92 
   4   3  -8    8.55    0.74 
   4   3  -8   10.78    0.70 
   4   3  -8    9.75    0.69 
   4   3  -7   -0.22    0.67 
   4   3  -7    0.62    0.57 
   4   3  -7   -0.47    0.66 
   4   3  -7   -0.07    0.63 
   4   3  -6    2.51    0.71 
   4   3  -6    2.07    0.73 
   4   3  -6    1.96    0.71 
   4   3  -6    2.73    0.82 
   4   3  -6    1.62    0.81 
   4   3  -6    2.05    0.66 
   4   3  -6    2.18    0.68 
   4   3  -5   28.02    1.30 
   4   3  -5   31.50    1.33 
   4   3  -4   74.23    1.85 
   4   3  -4   76.59    1.54 
   4   3  -3   36.03    1.02 
   4   3  -3   39.86    1.08 
   4   3  -2   22.02    0.80 
   4   3  -1  101.80    1.69 
   4   3  -1  102.93    2.11 
   4   3   0    7.65    0.71 
   4   3   0    7.24    0.51 
   4   3   0    6.94    0.78 
   4   3   1   43.82    1.31 
   4   3   1   51.48    1.65 
   4   3   2    9.94    0.50 
   4   3   2   10.06    0.72 
   4   3   2    9.44    0.66 
   4   3   2    8.56    0.95 
   4   3   2   10.56    0.57 
   4   3   3    7.18    0.70 
   4   3   3    7.34    0.69 
   4   3   3    9.02    1.06 
   4   3   3    7.83    0.92 
   4   3   3    9.31    0.64 
   4   3   3    9.43    0.54 
   4   3   3   10.43    0.64 
   4   3   3    8.59    0.59 
   4   3   3    8.52    0.69 
   4   3   4    0.91    0.47 
   4   3   4    0.89    0.48 
   4   3   4    1.46    0.78 
   4   3   4    0.80    0.64 
   4   3   4    1.17    0.30 
   4   3   4    1.34    0.39 
   4   3   4    0.64    0.77 
   4   3   4    1.01    0.56 
   4   3   5   26.14    1.04 
   4   3   5   27.59    0.95 
   4   3   5   29.76    0.95 
   4   3   5   30.23    0.97 
   4   3   5   29.66    1.39 
   4   3   5   31.20    1.34 
   4   3   5   28.41    1.46 
   4   3   6  310.33    5.27 
   4   3   6  290.27    4.28 
   4   3   6  294.20    4.02 
   4   3   6  324.85    4.88 
   4   3   6  263.29    4.68 
   4   3   6  325.56    3.74 
   4   3   6  323.26    3.75 
   4   3   6  338.72    4.64 
   4   3   6  327.65    4.70 
   4   3   7    3.63    0.50 
   4   3   7    3.64    0.62 
   4   3   7    4.14    0.71 
   4   3   7    4.99    0.69 
   4   3   7    4.33    0.48 
   4   3   7    4.59    0.48 
   4   3   7    5.22    0.73 
   4   3   7    4.20    0.66 
   4   3   8   34.22    0.94 
   4   3   8   37.88    1.31 
   4   3   8   36.88    1.28 
   4   3   8   34.16    0.78 
   4   3   8   37.51    1.05 
   4   3   8   36.81    1.30 
   4   3   8   32.90    1.22 
   4   3   9    5.76    0.59 
   4   3   9    5.70    0.56 
   4   3   9    5.66    0.34 
   4   3   9    5.37    0.45 
   4   3  10    2.84    0.20 
   4   3  10    2.51    0.22 
   4   3  10    2.89    0.24 
   4   3  10    2.94    0.31 
   4   4  -9    1.04    0.37 
   4   4  -8    9.92    0.57 
   4   4  -7   -0.01    0.50 
   4   4  -7    0.07    0.65 
   4   4  -7   -0.10    0.66 
   4   4  -7   -0.34    0.62 
   4   4  -7   -0.07    1.19 
   4   4  -6    2.53    0.72 
   4   4  -6    3.22    0.85 
   4   4  -6    3.04    0.72 
   4   4  -6    4.48    0.69 
   4   4  -6    2.02    1.55 
   4   4  -6    3.87    0.76 
   4   4  -5    3.82    1.45 
   4   4  -5    5.31    0.78 
   4   4  -5    6.37    0.71 
   4   4  -4   25.58    1.16 
   4   4  -4   30.44    1.27 
   4   4  -4   28.45    1.06 
   4   4  -4   27.40    1.09 
   4   4  -3   13.68    0.81 
   4   4  -3   15.00    0.84 
   4   4  -3   14.19    0.81 
   4   4  -3   13.08    1.12 
   4   4  -3   15.23    0.79 
   4   4  -3   16.11    1.20 
   4   4  -2   23.29    0.95 
   4   4  -2   36.14    1.23 
   4   4  -2   27.14    1.01 
   4   4  -2   30.51    1.40 
   4   4  -2   30.09    1.01 
   4   4  -1    0.12    0.48 
   4   4  -1   -0.57    0.72 
   4   4  -1    1.16    2.06 
   4   4  -1    0.01    0.41 
   4   4  -1   -0.35    0.63 
   4   4  -1    0.43    0.35 
   4   4   0    5.71    0.88 
   4   4   0    6.13    1.08 
   4   4   0    3.51    0.51 
   4   4   0    5.50    0.49 
   4   4   0    4.54    0.74 
   4   4   0    5.00    0.50 
   4   4   1   30.40    1.34 
   4   4   1   27.95    1.20 
   4   4   2    0.92    0.75 
   4   4   2    1.37    0.50 
   4   4   2    1.41    0.51 
   4   4   2    0.99    0.77 
   4   4   2    1.40    0.41 
   4   4   2    1.46    0.43 
   4   4   2    1.67    0.52 
   4   4   3    0.85    0.54 
   4   4   3    0.38    0.53 
   4   4   3    0.61    0.36 
   4   4   3    0.65    0.70 
   4   4   3    0.44    0.51 
   4   4   3    0.37    0.43 
   4   4   3    1.55    0.77 
   4   4   3    0.59    0.26 
   4   4   3    0.76    0.40 
   4   4   3    0.22    0.78 
   4   4   3    0.84    0.48 
   4   4   4   12.06    0.76 
   4   4   4   12.34    0.79 
   4   4   4   11.42    0.77 
   4   4   4   12.42    1.14 
   4   4   4   11.19    0.90 
   4   4   4   12.06    0.72 
   4   4   4   14.51    0.75 
   4   4   4    9.30    1.01 
   4   4   4   12.05    1.05 
   4   4   4    9.44    1.11 
   4   4   5    0.52    0.65 
   4   4   5    0.25    0.30 
   4   4   5    0.42    0.46 
   4   4   5    0.77    0.47 
   4   4   5    0.54    0.57 
   4   4   5    0.48    0.66 
   4   4   5    0.62    0.67 
   4   4   5    0.80    0.62 
   4   4   6   17.70    1.02 
   4   4   6   19.98    0.81 
   4   4   6   20.06    0.82 
   4   4   6   18.05    1.15 
   4   4   6    9.46    0.70 
   4   4   6   18.01    1.10 
   4   4   6   11.48    0.99 
   4   4   6   21.01    1.12 
   4   4   6   21.23    1.16 
   4   4   6   13.87    1.20 
   4   4   6   17.80    0.94 
   4   4   7   -0.29    0.55 
   4   4   7    0.06    0.56 
   4   4   7   -0.34    0.31 
   4   4   7    0.29    0.49 
   4   4   7    0.34    0.42 
   4   4   7    0.32    0.40 
   4   4   7    0.22    0.39 
   4   4   8   35.20    1.22 
   4   4   8   35.69    1.24 
   4   4   8   36.07    1.16 
   4   4   8   34.63    0.80 
   4   4   8   32.65    0.87 
   4   4   8   32.88    0.87 
   4   4   9    3.07    0.29 
   4   4  10    0.53    0.18 
   4   5  -9    0.78    0.22 
   4   5  -8    0.49    0.33 
   4   5  -7    0.59    0.55 
   4   5  -6    2.87    0.64 
   4   5  -6    2.70    0.78 
   4   5  -6    2.68    0.60 
   4   5  -6    3.82    0.65 
   4   5  -5    3.02    0.71 
   4   5  -5    2.51    0.62 
   4   5  -5    3.09    0.87 
   4   5  -5    2.15    0.58 
   4   5  -5    3.48    0.48 
   4   5  -4   21.64    1.09 
   4   5  -4   26.21    1.28 
   4   5  -4   24.96    1.08 
   4   5  -4   23.87    1.16 
   4   5  -3   26.35    1.10 
   4   5  -3   30.34    1.23 
   4   5  -3   31.95    1.20 
   4   5  -3   25.85    1.56 
   4   5  -3   23.79    1.16 
   4   5  -2   78.47    1.82 
   4   5  -2   82.71    2.43 
   4   5  -2  102.90    2.39 
   4   5  -2   93.01    1.87 
   4   5  -2   79.09    1.37 
   4   5  -2   70.63    2.40 
   4   5  -2   77.04    2.93 
   4   5  -2   56.42    1.71 
   4   5  -2   77.99    1.75 
   4   5  -2   73.18    1.65 
   4   5  -1    1.69    0.73 
   4   5  -1    1.11    0.43 
   4   5  -1    1.36    0.74 
   4   5  -1    1.18    0.89 
   4   5  -1    0.96    0.84 
   4   5  -1    0.80    0.52 
   4   5  -1    1.32    0.48 
   4   5  -1    1.12    0.49 
   4   5   0    0.55    0.57 
   4   5   0    0.52    0.36 
   4   5   0    0.19    0.38 
   4   5   0    0.02    0.65 
   4   5   0    0.34    0.66 
   4   5   0    0.22    0.75 
   4   5   0   -0.21    0.49 
   4   5   1   28.64    1.41 
   4   5   1   32.59    1.65 
   4   5   1   29.03    1.81 
   4   5   1   31.50    1.79 
   4   5   1   30.74    1.35 
   4   5   1   32.27    0.77 
   4   5   2   55.34    1.06 
   4   5   2   47.56    1.61 
   4   5   2   47.61    1.60 
   4   5   2   59.81    1.35 
   4   5   2   47.51    1.64 
   4   5   2   52.14    1.98 
   4   5   2   36.69    1.46 
   4   5   2   26.70    1.80 
   4   5   2   50.95    2.18 
   4   5   2   67.02    1.63 
   4   5   2   51.94    1.62 
   4   5   3    5.92    0.40 
   4   5   3    3.60    0.84 
   4   5   3    6.72    0.70 
   4   5   3    6.08    0.68 
   4   5   3    5.99    0.52 
   4   5   3    4.23    0.70 
   4   5   3    4.32    0.89 
   4   5   3    4.60    0.62 
   4   5   3    5.11    0.98 
   4   5   3    4.90    0.66 
   4   5   3    6.53    0.64 
   4   5   4    5.52    0.58 
   4   5   4    5.95    0.39 
   4   5   4    5.99    0.92 
   4   5   4    3.52    0.76 
   4   5   4    5.61    0.62 
   4   5   4    5.69    0.64 
   4   5   4    5.34    0.46 
   4   5   4    4.65    0.75 
   4   5   4    2.88    0.74 
   4   5   4    4.69    0.81 
   4   5   4    4.08    0.77 
   4   5   4    6.00    0.40 
   4   5   4    5.06    0.63 
   4   5   5   30.85    1.30 
   4   5   5   32.17    1.20 
   4   5   5   38.62    0.94 
   4   5   5   40.74    0.89 
   4   5   5   42.37    1.58 
   4   5   5   39.46    1.62 
   4   5   5   29.17    1.37 
   4   5   5   42.50    1.18 
   4   5   5   43.40    1.20 
   4   5   6    1.11    0.27 
   4   5   6    1.36    0.60 
   4   5   6    1.33    0.64 
   4   5   6    2.08    0.53 
   4   5   6    1.56    0.32 
   4   5   6    1.56    0.45 
   4   5   6    1.68    0.44 
   4   5   7  137.92    2.58 
   4   5   7  144.75    2.08 
   4   5   7  129.45    1.80 
   4   5   7  135.62    2.02 
   4   5   7  137.35    2.03 
   4   5   8    0.30    0.21 
   4   5   8    0.71    0.41 
   4   5   8    0.70    0.31 
   4   5   8    0.37    0.31 
   4   5   8    0.52    0.32 
   4   5   8    0.47    0.28 
   4   5   8    0.48    0.25 
   4   5   9    1.75    0.20 
   4   5   9    1.97    0.23 
   4   6  -8    1.90    0.22 
   4   6  -7    2.40    0.35 
   4   6  -7    2.31    0.37 
   4   6  -6   12.16    0.67 
   4   6  -6    8.56    0.62 
   4   6  -5   14.80    0.78 
   4   6  -5   13.38    1.03 
   4   6  -5   15.26    0.62 
   4   6  -5   13.87    0.87 
   4   6  -4   39.18    1.20 
   4   6  -4   37.14    0.95 
   4   6  -3    8.46    0.61 
   4   6  -3    8.62    0.74 
   4   6  -2   37.93    1.37 
   4   6  -2   35.00    0.95 
   4   6  -1   32.12    1.54 
   4   6  -1   42.45    1.39 
   4   6  -1   33.88    1.07 
   4   6  -1   41.68    0.99 
   4   6  -1   22.51    1.72 
   4   6  -1   16.11    1.85 
   4   6  -1   24.47    1.61 
   4   6  -1   20.49    1.20 
   4   6   0   11.45    1.07 
   4   6   0   11.52    1.06 
   4   6   0   17.65    0.94 
   4   6   0    9.64    1.09 
   4   6   0    8.85    0.90 
   4   6   0   19.41    0.72 
   4   6   0   13.88    0.70 
   4   6   0   10.39    1.33 
   4   6   0   20.56    0.66 
   4   6   0   13.06    1.08 
   4   6   1    5.64    0.81 
   4   6   1    7.48    0.69 
   4   6   1    3.79    0.73 
   4   6   1    5.83    0.82 
   4   6   1    5.55    0.48 
   4   6   1    6.33    1.06 
   4   6   1    4.11    1.09 
   4   6   1   10.52    0.54 
   4   6   1    9.57    0.81 
   4   6   2    0.53    0.62 
   4   6   2   -0.21    0.57 
   4   6   2    0.17    0.43 
   4   6   2    0.24    0.52 
   4   6   2    0.73    0.50 
   4   6   2   -0.16    0.74 
   4   6   2    0.42    0.71 
   4   6   2    0.15    0.50 
   4   6   2   -0.22    0.25 
   4   6   2    0.02    0.35 
   4   6   3    0.74    0.39 
   4   6   3    0.74    0.25 
   4   6   3    0.76    0.69 
   4   6   3    0.18    0.66 
   4   6   3    0.58    0.56 
   4   6   3    1.01    0.37 
   4   6   3    0.53    0.52 
   4   6   4    3.08    0.62 
   4   6   4    4.93    0.45 
   4   6   4    5.37    0.40 
   4   6   4    4.02    0.63 
   4   6   4    3.96    0.83 
   4   6   4    5.32    0.80 
   4   6   4    3.35    0.50 
   4   6   4    5.30    0.39 
   4   6   4    5.67    0.60 
   4   6   4    5.60    0.60 
   4   6   5    0.01    0.40 
   4   6   5    0.38    0.40 
   4   6   5    0.01    0.23 
   4   6   5    0.15    0.53 
   4   6   5    0.35    0.44 
   4   6   5    0.14    0.28 
   4   6   5   -0.06    0.41 
   4   6   6   11.21    0.49 
   4   6   6   13.46    0.84 
   4   6   6   12.04    0.50 
   4   6   6   12.89    0.65 
   4   6   6   12.68    0.65 
   4   6   7    3.62    0.38 
   4   6   7    3.09    0.32 
   4   6   7    3.54    0.40 
   4   6   7    3.68    0.39 
   4   6   8    0.22    0.21 
   4   6   8    0.36    0.24 
   4   6   8    0.37    0.24 
   4   7  -6    6.86    0.45 
   4   7  -5   49.33    1.13 
   4   7  -5   50.13    1.14 
   4   7  -4    5.36    0.48 
   4   7  -4    4.42    0.55 
   4   7  -4    3.96    0.48 
   4   7  -3   29.07    0.98 
   4   7  -3   42.08    1.22 
   4   7  -3   41.25    0.96 
   4   7  -3   45.54    0.97 
   4   7  -3   22.83    1.13 
   4   7  -3   24.78    1.12 
   4   7  -3   29.48    1.41 
   4   7  -2    2.20    0.47 
   4   7  -2    3.60    0.51 
   4   7  -2    3.99    0.50 
   4   7  -2    2.54    0.64 
   4   7  -2    1.91    0.63 
   4   7  -2    2.75    0.71 
   4   7  -1    0.37    0.44 
   4   7  -1   -0.17    0.38 
   4   7  -1    0.20    0.66 
   4   7  -1   -0.12    0.56 
   4   7  -1   -0.13    0.57 
   4   7  -1    0.17    0.47 
   4   7   0    4.56    0.59 
   4   7   0    5.98    0.53 
   4   7   0    6.28    0.50 
   4   7   0    2.62    0.42 
   4   7   0    2.60    0.81 
   4   7   0    3.69    0.68 
   4   7   0    3.66    0.69 
   4   7   0    2.44    0.67 
   4   7   1   20.74    0.90 
   4   7   1   29.23    0.86 
   4   7   1   18.80    1.29 
   4   7   1   29.82    0.82 
   4   7   1   26.96    0.76 
   4   7   1   21.58    1.07 
   4   7   1   23.11    1.08 
   4   7   1   14.97    1.06 
   4   7   2   10.63    0.66 
   4   7   2   10.20    0.97 
   4   7   2   12.06    0.65 
   4   7   2   15.43    0.61 
   4   7   2   12.24    0.80 
   4   7   2   12.40    0.80 
   4   7   2    7.57    0.80 
   4   7   3    0.14    0.54 
   4   7   3   -0.02    0.37 
   4   7   3    0.36    0.48 
   4   7   3    0.01    0.36 
   4   7   4    1.71    0.57 
   4   7   4    1.71    0.48 
   4   7   5    1.14    0.46 
   4   7   6   12.59    0.55 
   4   7   6   12.45    0.55 
   4   7   7    8.41    0.38 
   4   8  -4   92.52    1.21 
   4   8  -3   10.45    0.48 
   4   8  -3    6.88    0.47 
   4   8  -2    5.00    0.42 
   4   8  -2    8.50    0.56 
   4   8  -1    7.04    0.46 
   4   8  -1   18.87    0.64 
   4   8   0    7.01    0.55 
   4   8   0    8.75    0.52 
   4   8   0    5.43    0.50 
   4   8   0    5.99    0.50 
   4   8   0    2.64    0.35 
   4   8   0    5.63    0.49 
   4   8   0    5.93    0.44 
   4   8   1    2.84    0.44 
   4   8   1    2.69    0.44 
   4   8   1    2.24    0.39 
   4   8   1    3.25    0.42 
   4   8   1    3.09    0.48 
   4   8   1    3.66    0.46 
   4   8   2    3.62    0.44 
   4   8   2    3.76    0.44 
   4   8   2    4.58    0.43 
   4   8   2    2.71    0.45 
   4   8   2    3.19    0.40 
   4   8   3    0.44    0.33 
   4   8   3    0.46    0.33 
   4   8   3   -0.01    0.27 
   4   8   3    0.26    0.34 
   4   8   3    0.20    0.33 
   4   8   4    4.17    0.37 
   4   8   4    4.12    0.39 
   4   8   4    3.74    0.38 
   4   8   4    3.62    0.38 
   4   8   4    4.12    0.40 
   4   8   5   17.72    0.50 
   4   9  -1    0.25    0.24 
   4   9   0    1.73    0.29 
   5  -6   3    8.44    0.34 
   5  -6   4    6.47    0.30 
   5  -6   4    6.42    0.30 
   5  -5  -1   -0.16    0.75 
   5  -5   1    1.96    0.35 
   5  -5   1    2.53    0.36 
   5  -5   2    0.32    0.31 
   5  -5   3    2.34    0.39 
   5  -5   4    5.49    0.47 
   5  -5   4    4.88    0.31 
   5  -5   5    2.96    0.37 
   5  -5   5    3.28    0.26 
   5  -5   6    0.37    0.17 
   5  -4  -1    0.95    0.42 
   5  -4  -1    0.16    0.40 
   5  -4   0   43.88    1.41 
   5  -4   0   47.21    1.42 
   5  -4   1   41.44    1.34 
   5  -4   1   41.46    1.34 
   5  -4   2    1.87    0.43 
   5  -4   2    1.73    0.45 
   5  -4   2    1.82    0.45 
   5  -4   3    7.19    0.60 
   5  -4   4   39.84    1.24 
   5  -4   4   41.64    0.93 
   5  -4   5   24.27    0.95 
   5  -4   5   26.98    0.71 
   5  -4   5   25.30    0.97 
   5  -4   6    1.20    0.25 
   5  -4   6    1.08    0.25 
   5  -4   7    2.85    0.25 
   5  -4   7    2.87    0.26 
   5  -4   7    3.15    0.28 
   5  -4   8    3.33    0.20 
   5  -3  -1   51.40    1.50 
   5  -3   0   15.81    0.87 
   5  -3   0   16.21    0.89 
   5  -3   1   38.52    1.29 
   5  -3   1   36.57    1.28 
   5  -3   2   18.22    0.92 
   5  -3   2   19.76    0.93 
   5  -3   2   20.33    0.93 
   5  -3   3   18.21    0.98 
   5  -3   3   16.70    0.87 
   5  -3   3   17.01    0.85 
   5  -3   3   17.25    0.84 
   5  -3   4    0.66    0.38 
   5  -3   4    0.53    0.39 
   5  -3   5   17.42    0.74 
   5  -3   5   14.89    0.87 
   5  -3   5   17.21    0.89 
   5  -3   6    8.71    0.63 
   5  -3   6    8.82    0.53 
   5  -3   7    3.66    0.48 
   5  -3   7    3.09    0.41 
   5  -3   7    3.08    0.35 
   5  -3   8    0.03    0.19 
   5  -3   9    7.09    0.24 
   5  -2   0   68.42    1.65 
   5  -2   1   56.95    1.54 
   5  -2   2    0.21    0.40 
   5  -2   2    0.28    0.39 
   5  -2   2    0.42    0.30 
   5  -2   3    8.56    0.71 
   5  -2   3    7.09    0.60 
   5  -2   3    7.59    0.72 
   5  -2   3    6.95    0.77 
   5  -2   4   69.11    1.91 
   5  -2   4   69.86    1.77 
   5  -2   5    4.63    0.63 
   5  -2   5    3.77    0.56 
   5  -2   5    5.20    0.77 
   5  -2   5    3.23    0.44 
   5  -2   5    3.82    0.56 
   5  -2   5    3.88    0.51 
   5  -2   6   12.38    0.89 
   5  -2   6   11.82    0.68 
   5  -2   6   12.06    0.82 
   5  -2   7   23.20    0.82 
   5  -2   7   21.76    0.76 
   5  -2   7   20.56    0.91 
   5  -2   7   23.00    1.03 
   5  -2   7   21.42    0.99 
   5  -2   8    0.22    0.21 
   5  -2   8    0.64    0.34 
   5  -2   8    0.16    0.25 
   5  -2   9   30.73    0.55 
   5  -1  -6   16.21    1.07 
   5  -1   0   51.79    1.63 
   5  -1   1   47.48    1.33 
   5  -1   1   39.20    1.44 
   5  -1   2   27.50    1.09 
   5  -1   2   23.38    0.95 
   5  -1   3    0.33    0.74 
   5  -1   3    0.07    0.37 
   5  -1   3    0.26    0.45 
   5  -1   3    0.20    0.29 
   5  -1   4    8.75    1.03 
   5  -1   4    7.99    0.93 
   5  -1   4    9.11    0.68 
   5  -1   4    8.26    0.62 
   5  -1   4    7.43    0.80 
   5  -1   5   85.49    2.52 
   5  -1   5   89.74    2.28 
   5  -1   5   77.72    2.23 
   5  -1   5   68.95    1.77 
   5  -1   5   70.52    2.06 
   5  -1   5   71.97    1.80 
   5  -1   6    1.25    0.50 
   5  -1   6    1.92    0.67 
   5  -1   6    1.58    0.59 
   5  -1   6    1.18    0.56 
   5  -1   7   38.51    1.13 
   5  -1   7   35.71    1.24 
   5  -1   7   37.45    1.40 
   5  -1   7   39.45    1.49 
   5  -1   8   16.18    0.65 
   5  -1   8   16.12    0.83 
   5  -1   8   15.09    0.84 
   5  -1   9    1.28    0.20 
   5  -1   9    1.61    0.25 
   5  -1   9    1.44    0.26 
   5   0  -8    1.22    0.61 
   5   0  -8    2.14    0.62 
   5   0  -7   15.75    1.21 
   5   0  -7   15.59    1.16 
   5   0  -6    2.42    0.76 
   5   0  -6    2.67    0.75 
   5   0  -5    1.86    0.62 
   5   0  -5    0.88    0.70 
   5   0  -4    0.16    0.49 
   5   0  -4    0.24    0.50 
   5   0  -4    0.38    0.63 
   5   0  -3   15.64    0.88 
   5   0  -3    9.48    0.94 
   5   0  -2    2.94    0.43 
   5   0  -2    0.79    0.61 
   5   0  -1   50.62    1.31 
   5   0  -1   40.80    1.36 
   5   0   0    0.73    0.48 
   5   0   1   57.11    1.87 
   5   0   2   11.55    0.68 
   5   0   2    8.24    0.72 
   5   0   2   10.66    0.61 
   5   0   2    6.11    0.96 
   5   0   2    8.20    0.94 
   5   0   3    2.16    0.81 
   5   0   3    3.69    0.96 
   5   0   3    4.84    0.52 
   5   0   3    4.91    0.48 
   5   0   3    2.46    0.57 
   5   0   3    2.76    0.82 
   5   0   4   10.73    1.18 
   5   0   4   11.58    0.71 
   5   0   4   10.86    0.87 
   5   0   4   12.96    0.75 
   5   0   4   11.16    1.07 
   5   0   5   70.25    2.29 
   5   0   5   72.75    2.10 
   5   0   5   70.07    1.87 
   5   0   5   66.88    1.72 
   5   0   5   64.03    2.09 
   5   0   5   67.70    1.95 
   5   0   5   71.94    1.75 
   5   0   6   62.48    2.25 
   5   0   6   70.80    1.53 
   5   0   6   56.85    1.60 
   5   0   6   57.65    1.78 
   5   0   6   57.18    1.56 
   5   0   6   70.38    2.09 
   5   0   6   67.05    2.10 
   5   0   7   36.74    1.19 
   5   0   7   41.03    1.44 
   5   0   7   39.93    1.50 
   5   0   7   39.60    1.01 
   5   0   8    3.39    0.53 
   5   0   8    3.43    0.53 
   5   0   8    3.01    0.28 
   5   0   8    2.67    0.41 
   5   0   8    3.67    0.44 
   5   0   9    2.87    0.23 
   5   0   9    3.13    0.30 
   5   0   9    2.77    0.33 
   5   0  10    8.14    0.24 
   5   1  -7    1.53    0.57 
   5   1  -7    3.69    0.87 
   5   1  -7    2.96    0.80 
   5   1  -7    0.55    0.57 
   5   1  -6    0.40    0.68 
   5   1  -6    0.37    0.64 
   5   1  -6    0.97    0.67 
   5   1  -5    2.70    1.16 
   5   1  -5    2.79    0.68 
   5   1  -5    2.77    0.69 
   5   1  -4   20.28    1.05 
   5   1  -4   18.61    1.03 
   5   1  -3    0.60    0.69 
   5   1  -3    0.57    0.47 
   5   1  -2    1.90    0.70 
   5   1  -2    2.79    0.42 
   5   1  -1   32.70    1.46 
   5   1  -1   42.14    1.17 
   5   1   0   27.82    1.30 
   5   1   0   42.18    1.18 
   5   1   1   35.01    1.50 
   5   1   1   24.34    1.18 
   5   1   2    3.43    0.60 
   5   1   2    4.05    0.80 
   5   1   2    3.78    0.74 
   5   1   3    3.32    0.64 
   5   1   3    5.18    0.88 
   5   1   3    5.07    0.45 
   5   1   3    4.20    0.91 
   5   1   3    4.30    0.73 
   5   1   4   39.44    1.57 
   5   1   4   42.70    1.29 
   5   1   4   42.50    1.74 
   5   1   4   40.54    1.96 
   5   1   4   41.51    1.82 
   5   1   5  117.95    2.88 
   5   1   5  120.97    2.52 
   5   1   5  116.49    2.34 
   5   1   5  113.28    2.77 
   5   1   5  112.98    2.30 
   5   1   5  121.45    2.26 
   5   1   5  123.23    2.71 
   5   1   5  128.25    3.17 
   5   1   5  104.36    2.88 
   5   1   6   49.98    1.70 
   5   1   6   56.71    1.91 
   5   1   6   45.50    1.83 
   5   1   6   47.43    1.45 
   5   1   6   40.63    1.77 
   5   1   6   45.73    1.72 
   5   1   6   40.46    1.29 
   5   1   6   47.16    1.36 
   5   1   6   54.60    1.58 
   5   1   6   58.53    1.51 
   5   1   7   23.71    0.91 
   5   1   7   21.01    1.14 
   5   1   8    1.93    0.38 
   5   1   8    3.42    0.45 
   5   1   8    2.82    0.57 
   5   1   8    2.92    0.27 
   5   1   8    3.06    0.55 
   5   1   9   10.81    0.51 
   5   1   9   11.60    0.46 
   5   2  -8    0.69    1.28 
   5   2  -7   19.05    1.33 
   5   2  -7   17.68    1.28 
   5   2  -6   12.70    1.08 
   5   2  -5    2.41    0.68 
   5   2  -5    2.51    0.66 
   5   2  -4    8.25    1.27 
   5   2  -4   10.17    0.83 
   5   2  -4    8.74    0.80 
   5   2  -3    4.74    1.06 
   5   2  -3    6.29    0.68 
   5   2  -2   33.95    1.07 
   5   2  -1   60.13    1.43 
   5   2  -1   53.82    1.48 
   5   2   0   24.83    1.26 
   5   2   0   27.39    1.03 
   5   2   1    5.22    0.53 
   5   2   1    4.08    0.75 
   5   2   2   17.29    1.22 
   5   2   2   19.19    1.27 
   5   2   3   17.02    0.82 
   5   2   3   17.63    0.82 
   5   2   3   18.02    1.39 
   5   2   3   17.35    1.21 
   5   2   3   22.71    0.99 
   5   2   3   12.64    1.05 
   5   2   3   17.72    1.29 
   5   2   4    9.71    0.62 
   5   2   4   10.28    0.73 
   5   2   4    7.29    0.86 
   5   2   4    7.33    1.05 
   5   2   4    8.36    1.15 
   5   2   4    9.18    1.09 
   5   2   4    8.07    0.90 
   5   2   5   27.22    1.07 
   5   2   5   28.54    1.10 
   5   2   5   29.71    1.51 
   5   2   5   31.17    1.48 
   5   2   5   28.63    1.26 
   5   2   6   11.46    1.86 
   5   2   6   54.32    1.48 
   5   2   6   55.31    1.68 
   5   2   6   42.63    1.80 
   5   2   6   44.10    1.40 
   5   2   6   21.02    1.50 
   5   2   7   47.49    1.24 
   5   2   7   38.34    1.57 
   5   2   7   45.02    1.39 
   5   2   7   36.37    1.54 
   5   2   8   17.98    0.98 
   5   2   8   19.82    0.84 
   5   2   8   17.25    0.94 
   5   2   9    0.47    0.24 
   5   2   9    0.09    0.29 
   5   2  10   31.89    0.52 
   5   3  -8    3.62    0.81 
   5   3  -7    7.33    1.40 
   5   3  -6    6.55    1.05 
   5   3  -6    5.54    1.20 
   5   3  -4   -0.03    0.74 
   5   3  -4   -0.27    0.59 
   5   3  -3    0.05    0.36 
   5   3  -3    0.06    0.51 
   5   3  -3   -0.49    0.65 
   5   3  -2    1.69    0.43 
   5   3  -2    1.09    0.55 
   5   3  -2    1.29    0.64 
   5   3  -1  115.27    2.39 
   5   3  -1  116.80    2.14 
   5   3   0   21.53    1.02 
   5   3   0   23.48    0.94 
   5   3   1   51.88    1.74 
   5   3   1   48.71    1.44 
   5   3   2    3.24    0.82 
   5   3   2    3.37    0.95 
   5   3   3    1.17    0.52 
   5   3   3    0.57    0.51 
   5   3   3    0.81    0.84 
   5   3   3    0.83    0.70 
   5   3   3    1.40    0.46 
   5   3   3    1.23    0.89 
   5   3   3    0.44    0.52 
   5   3   4  151.13    3.34 
   5   3   4  154.80    3.14 
   5   3   4  164.99    2.70 
   5   3   4  153.49    3.60 
   5   3   4  139.42    2.29 
   5   3   4  142.09    2.30 
   5   3   5   38.82    1.00 
   5   3   5   37.08    1.01 
   5   3   5   39.60    1.75 
   5   3   5   33.52    1.21 
   5   3   5   36.09    1.21 
   5   3   5   42.06    1.51 
   5   3   5   41.79    1.63 
   5   3   5   34.80    1.64 
   5   3   6   24.67    1.70 
   5   3   6   65.72    1.68 
   5   3   6   61.11    1.80 
   5   3   6    6.32    1.58 
   5   3   6   58.65    1.97 
   5   3   6   40.95    1.83 
   5   3   7    3.97    0.56 
   5   3   7    2.20    0.56 
   5   3   7    4.19    0.62 
   5   3   7    4.39    0.55 
   5   3   7    4.53    0.66 
   5   3   7    3.34    0.62 
   5   3   8   37.69    1.14 
   5   3   8   38.34    0.95 
   5   3   9   12.94    0.39 
   5   3   9   16.64    0.53 
   5   3  10   -0.01    0.12 
   5   3  10    0.02    0.10 
   5   4  -7    1.45    0.51 
   5   4  -6   35.99    1.51 
   5   4  -6   29.09    1.45 
   5   4  -5   10.80    1.08 
   5   4  -5    5.64    0.90 
   5   4  -4    2.34    0.60 
   5   4  -4    1.13    0.77 
   5   4  -3   37.12    1.98 
   5   4  -3   69.02    1.66 
   5   4  -3   50.26    1.57 
   5   4  -3   47.97    1.53 
   5   4  -3   58.06    1.97 
   5   4  -3   49.99    1.44 
   5   4  -2    3.73    0.60 
   5   4  -2    2.48    0.85 
   5   4  -2    3.34    2.78 
   5   4  -2    3.08    0.54 
   5   4  -2    2.86    0.81 
   5   4  -2    3.05    0.51 
   5   4  -1   24.50    1.28 
   5   4  -1   17.20    1.41 
   5   4  -1   19.91    1.92 
   5   4  -1   25.01    1.01 
   5   4   0    0.14    0.73 
   5   4   0    0.70    0.77 
   5   4   0    0.31    0.38 
   5   4   0    0.32    0.61 
   5   4   0    0.01    0.57 
   5   4   1   22.58    1.26 
   5   4   1   25.01    1.67 
   5   4   1   23.37    1.59 
   5   4   1   26.27    1.15 
   5   4   2   17.95    1.12 
   5   4   2   19.49    1.13 
   5   4   2   25.36    0.84 
   5   4   2   36.05    1.22 
   5   4   2   25.11    1.64 
   5   4   2   24.46    1.55 
   5   4   2   29.34    0.71 
   5   4   2   21.93    1.05 
   5   4   3    1.12    0.53 
   5   4   3    0.58    0.54 
   5   4   3    0.65    0.73 
   5   4   3    0.45    0.54 
   5   4   3    0.36    0.80 
   5   4   3   -0.07    0.83 
   5   4   3    1.79    0.48 
   5   4   4    0.39    0.47 
   5   4   4    0.26    0.46 
   5   4   4    0.82    0.79 
   5   4   4    0.66    0.68 
   5   4   4    0.88    0.77 
   5   4   4    0.74    0.79 
   5   4   4   -0.12    0.45 
   5   4   5   94.24    1.70 
   5   4   5   94.17    1.71 
   5   4   6    0.10    0.38 
   5   4   6    0.32    0.53 
   5   4   6    0.80    0.59 
   5   4   6    0.43    0.57 
   5   4   6    0.67    0.51 
   5   4   6    0.52    0.26 
   5   4   6    0.39    0.36 
   5   4   6    0.53    0.36 
   5   4   7    8.53    0.71 
   5   4   7    7.91    0.64 
   5   4   7    7.51    0.43 
   5   4   7    7.07    0.43 
   5   4   7    6.89    0.37 
   5   4   7    8.53    0.69 
   5   4   8    1.81    0.24 
   5   4   9    0.06    0.17 
   5   5  -7    0.48    0.34 
   5   5  -6    3.81    0.51 
   5   5  -6    2.71    0.60 
   5   5  -5   16.78    0.81 
   5   5  -4    9.18    0.95 
   5   5  -4   10.25    0.73 
   5   5  -4    9.90    1.23 
   5   5  -3   14.04    1.17 
   5   5  -3   15.83    0.83 
   5   5  -3   16.58    1.28 
   5   5  -2   25.99    0.94 
   5   5  -2   27.29    1.44 
   5   5  -1    6.06    0.80 
   5   5  -1    4.56    0.58 
   5   5  -1    5.15    0.85 
   5   5  -1    6.65    0.66 
   5   5  -1    5.43    0.48 
   5   5   0   12.45    0.84 
   5   5   0   11.94    0.74 
   5   5   0    8.20    1.38 
   5   5   0    7.92    1.01 
   5   5   0    9.76    1.25 
   5   5   0    9.74    0.93 
   5   5   1    1.72    0.50 
   5   5   1    1.88    0.61 
   5   5   1    2.47    0.86 
   5   5   1    2.41    0.35 
   5   5   1    0.48    0.95 
   5   5   1    1.59    0.59 
   5   5   1    1.08    0.65 
   5   5   1    1.00    0.65 
   5   5   2    3.80    0.70 
   5   5   2    3.80    0.69 
   5   5   2    4.28    0.49 
   5   5   2    3.92    1.06 
   5   5   2    4.03    0.91 
   5   5   2    5.34    0.64 
   5   5   2    5.47    0.35 
   5   5   2    3.00    0.61 
   5   5   3    0.83    0.82 
   5   5   3    1.55    0.71 
   5   5   3    0.95    0.47 
   5   5   3    1.23    0.24 
   5   5   3    0.23    0.73 
   5   5   3    0.60    0.51 
   5   5   3    0.33    0.51 
   5   5   4    8.98    0.66 
   5   5   4    9.50    0.67 
   5   5   4    8.57    0.44 
   5   5   4    5.06    0.90 
   5   5   4    4.63    0.82 
   5   5   4    9.24    0.93 
   5   5   5  145.45    2.12 
   5   5   5  144.39    2.13 
   5   5   5  149.42    2.81 
   5   5   5  142.45    1.93 
   5   5   6    1.46    0.47 
   5   5   6    1.48    0.51 
   5   5   6    1.29    0.27 
   5   5   6    1.12    0.25 
   5   5   6    1.42    0.36 
   5   5   6    1.16    0.35 
   5   5   7   34.08    0.85 
   5   5   7   27.50    0.61 
   5   5   7   33.30    1.06 
   5   5   7   30.60    0.71 
   5   5   7   29.77    0.70 
   5   5   7   28.70    0.69 
   5   5   8    1.58    0.28 
   5   5   8    2.40    0.22 
   5   6  -6    1.99    0.35 
   5   6  -5   10.88    0.72 
   5   6  -5   17.21    0.66 
   5   6  -4   10.91    0.53 
   5   6  -4    9.48    0.59 
   5   6  -3    3.09    0.90 
   5   6  -3    3.28    0.45 
   5   6  -3    3.63    0.63 
   5   6  -3    3.24    0.72 
   5   6  -2    1.36    0.40 
   5   6  -2    0.32    0.86 
   5   6  -2    1.02    0.86 
   5   6  -2    1.34    0.57 
   5   6  -2    1.21    0.64 
   5   6  -1    2.03    1.00 
   5   6  -1    2.17    0.99 
   5   6  -1    5.22    0.48 
   5   6  -1    4.72    0.66 
   5   6  -1    3.15    0.75 
   5   6   0    1.34    0.93 
   5   6   0    1.41    0.88 
   5   6   0    2.20    0.65 
   5   6   0    3.74    0.45 
   5   6   0    3.37    0.56 
   5   6   1    0.45    0.32 
   5   6   1    0.37    0.78 
   5   6   1    0.29    0.70 
   5   6   1    0.40    0.55 
   5   6   1   -0.05    0.54 
   5   6   1    1.17    0.51 
   5   6   1    0.22    0.41 
   5   6   2    0.19    0.35 
   5   6   2    0.12    0.33 
   5   6   2    0.39    0.71 
   5   6   2    0.37    0.49 
   5   6   2    0.24    0.49 
   5   6   2   -0.35    0.65 
   5   6   2    0.32    0.45 
   5   6   3    5.34    0.42 
   5   6   3    5.79    0.48 
   5   6   3    5.05    0.86 
   5   6   3    5.90    0.61 
   5   6   3    5.20    0.61 
   5   6   3    6.27    0.38 
   5   6   3    3.67    0.55 
   5   6   4    0.09    0.34 
   5   6   4   -0.17    0.59 
   5   6   4    0.47    0.40 
   5   6   4   -0.08    0.39 
   5   6   4    0.19    0.22 
   5   6   4    0.38    0.49 
   5   6   5   18.44    0.72 
   5   6   5   20.82    1.05 
   5   6   5   21.84    0.75 
   5   6   5   22.00    0.75 
   5   6   5   18.77    0.75 
   5   6   5   21.45    0.62 
   5   6   6    0.20    0.19 
   5   6   6    0.30    0.29 
   5   6   6    0.09    0.28 
   5   6   7   16.98    0.48 
   5   7  -5    2.34    0.33 
   5   7  -4    8.88    0.54 
   5   7  -4   14.68    0.47 
   5   7  -3    4.70    0.61 
   5   7  -3    6.20    0.62 
   5   7  -2    1.72    0.43 
   5   7  -2    0.80    0.52 
   5   7  -2    0.58    0.50 
   5   7  -1   -0.52    0.62 
   5   7  -1   -0.09    0.39 
   5   7  -1    0.48    0.39 
   5   7  -1    0.06    0.49 
   5   7  -1   -0.09    0.50 
   5   7   0    8.97    0.93 
   5   7   0    8.05    0.75 
   5   7   0    9.85    0.62 
   5   7   1   11.92    1.03 
   5   7   1   20.16    0.67 
   5   7   1   13.21    0.65 
   5   7   1   19.45    0.60 
   5   7   2    0.14    0.53 
   5   7   2    0.12    0.35 
   5   7   2    0.11    0.29 
   5   7   2    0.16    0.32 
   5   7   3    0.52    0.48 
   5   7   3    0.21    0.26 
   5   7   3    0.27    0.32 
   5   7   3   -0.03    0.36 
   5   7   3    0.29    0.37 
   5   7   4   17.10    0.56 
   5   7   4   15.16    0.50 
   5   7   4   12.59    0.58 
   5   7   4   11.21    0.57 
   5   7   5    4.10    0.35 
   5   7   5    4.22    0.33 
   5   7   5    3.31    0.35 
   5   7   5    3.18    0.34 
   5   7   6   55.14    0.81 
   5   8  -3    4.41    0.28 
   5   8  -2    6.23    0.36 
   5   8   0    3.14    0.33 
   5   8   0    4.81    0.39 
   5   8   1    0.22    0.33 
   5   8   1   -0.06    0.30 
   5   8   2    0.22    0.29 
   5   8   3    1.59    0.27 
   5   8   4    0.18    0.21 
   6  -4   3    8.01    0.52 
   6  -4   4    0.82    0.20 
   6  -4   5    9.89    0.35 
   6  -3   2    2.00    0.44 
   6  -3   3    6.14    0.57 
   6  -3   4    3.85    0.48 
   6  -3   4    4.06    0.37 
   6  -3   5    0.08    0.22 
   6  -3   6    2.99    0.26 
   6  -2   3   34.58    1.49 
   6  -2   4   18.68    1.02 
   6  -2   4    7.98    0.68 
   6  -2   5    0.07    0.38 
   6  -2   5    0.28    0.31 
   6  -2   6    8.02    0.56 
   6  -2   6    6.87    0.45 
   6  -2   7    2.50    0.27 
   6  -1   0   92.96    2.14 
   6  -1   2   12.06    1.29 
   6  -1   3   -0.11    0.50 
   6  -1   4    5.04    0.91 
   6  -1   4    5.11    0.78 
   6  -1   5    1.75    0.62 
   6  -1   5    1.93    0.53 
   6  -1   6    1.12    0.47 
   6  -1   6    1.44    0.43 
   6  -1   6    0.57    0.38 
   6  -1   7    0.25    0.26 
   6  -1   7    0.58    0.33 
   6  -1   8    8.16    0.35 
   6   0  -5    2.31    0.76 
   6   0  -5    1.73    0.69 
   6   0  -3   39.14    1.52 
   6   0  -2   54.85    1.74 
   6   0  -1   25.89    1.39 
   6   0  -1   68.76    1.65 
   6   0   0   20.69    1.33 
   6   0   0   62.27    1.60 
   6   0   1    0.23    0.54 
   6   0   1   -0.03    0.44 
   6   0   2    1.32    0.83 
   6   0   3   26.92    1.85 
   6   0   4    1.02    0.65 
   6   0   4    0.76    0.59 
   6   0   5    3.55    0.84 
   6   0   5    3.84    0.75 
   6   0   6   12.88    0.99 
   6   0   6   14.19    0.92 
   6   0   6   12.99    0.92 
   6   0   7    0.60    0.37 
   6   0   7   -0.19    0.34 
   6   0   7   -0.01    0.28 
   6   0   7   -0.08    0.31 
   6   0   8   26.00    0.69 
   6   0   8   27.68    0.72 
   6   1  -2   30.07    1.53 
   6   1  -1   18.71    1.24 
   6   1  -1   42.52    1.31 
   6   1   0   10.18    0.95 
   6   1   0   23.61    0.99 
   6   1   1    5.60    0.82 
   6   1   1   12.00    0.77 
   6   1   2    0.30    0.61 
   6   1   2   -0.47    0.62 
   6   1   2    0.97    0.42 
   6   1   3    1.22    0.75 
   6   1   3    0.27    0.62 
   6   1   3    0.89    0.63 
   6   1   4   14.57    0.98 
   6   1   4   10.79    1.21 
   6   1   5    0.66    0.51 
   6   1   5    0.42    0.60 
   6   1   5    0.21    0.51 
   6   1   6   21.73    0.93 
   6   1   6   20.67    1.22 
   6   1   7    4.55    0.41 
   6   1   7    4.07    0.56 
   6   2  -6    0.68    0.95 
   6   2  -5    0.19    0.56 
   6   2  -5   -0.20    0.61 
   6   2  -4    3.91    0.72 
   6   2  -3    2.02    0.63 
   6   2  -2   36.35    1.42 
   6   2  -2   26.05    1.11 
   6   2  -1    1.60    0.43 
   6   2  -1    0.63    0.59 
   6   2   0   64.03    1.59 
   6   2   0   35.09    1.68 
   6   2   1    1.79    0.68 
   6   2   1    2.63    0.74 
   6   2   2    1.07    0.73 
   6   2   2    1.67    0.62 
   6   2   2    0.36    0.47 
   6   2   2    2.50    0.72 
   6   2   3    0.41    0.72 
   6   2   3    0.23    0.66 
   6   2   3    0.36    0.50 
   6   2   4   30.50    1.81 
   6   2   4   40.53    1.65 
   6   2   5   36.39    1.78 
   6   2   5   27.68    1.29 
   6   2   6    7.17    0.62 
   6   2   6    5.45    0.60 
   6   2   6    6.13    0.74 
   6   2   7    2.71    0.56 
   6   2   7    2.23    0.44 
   6   2   8    1.09    0.27 
   6   2   8    2.71    0.28 
   6   3  -6    0.62    0.53 
   6   3  -5    6.45    0.76 
   6   3  -4    0.56    0.57 
   6   3  -3   -0.18    0.58 
   6   3  -2    9.76    0.82 
   6   3  -1    8.31    0.71 
   6   3   0   12.94    0.78 
   6   3   1    2.95    0.51 
   6   3   1    1.54    0.81 
   6   3   1    1.23    0.68 
   6   3   2    1.22    0.76 
   6   3   2    0.95    0.64 
   6   3   2    1.15    0.45 
   6   3   2    0.49    0.43 
   6   3   3   13.82    1.27 
   6   3   3   16.83    1.11 
   6   3   3   13.97    0.72 
   6   3   4   47.63    1.78 
   6   3   4   47.27    1.57 
   6   3   5    4.13    1.01 
   6   3   5   10.85    0.96 
   6   3   5   25.57    0.97 
   6   3   5   24.51    1.11 
   6   3   6    1.04    0.55 
   6   3   6    0.88    0.56 
   6   3   6    5.78    0.59 
   6   3   6    0.29    0.44 
   6   3   6    4.44    0.52 
   6   3   7    1.64    0.34 
   6   3   7    3.07    0.39 
   6   3   8    8.84    0.30 
   6   3   8    9.05    0.39 
   6   3   9   13.55    0.28 
   6   4  -6    0.50    0.56 
   6   4  -5    1.40    0.40 
   6   4  -4    3.13    0.67 
   6   4  -3    3.93    0.72 
   6   4  -2   32.17    1.34 
   6   4  -2   40.79    1.42 
   6   4  -1    8.24    0.75 
   6   4  -1   10.23    0.75 
   6   4   0    0.48    0.44 
   6   4   0    0.98    0.43 
   6   4   0   -0.04    0.68 
   6   4   1    0.89    0.54 
   6   4   1    0.94    0.55 
   6   4   1    1.54    0.88 
   6   4   1    2.17    0.78 
   6   4   2    9.54    0.76 
   6   4   2   11.61    0.81 
   6   4   2   14.37    1.36 
   6   4   2   16.25    1.23 
   6   4   3    2.41    0.88 
   6   4   3    3.83    0.84 
   6   4   3    3.99    0.71 
   6   4   3    2.84    0.49 
   6   4   3    3.39    0.49 
   6   4   4   14.61    1.06 
   6   4   4   16.74    0.96 
   6   4   4   16.29    0.63 
   6   4   4   13.20    0.60 
   6   4   4   19.14    0.56 
   6   4   5   11.41    1.07 
   6   4   5    3.03    0.82 
   6   4   5    1.31    0.73 
   6   4   5   23.55    0.95 
   6   4   5   20.56    1.05 
   6   4   5   23.19    0.59 
   6   4   6   23.01    0.57 
   6   4   7    7.10    0.30 
   6   4   8    0.67    0.12 
   6   5  -5    0.60    0.37 
   6   5  -4   -0.08    0.43 
   6   5  -3    0.15    0.49 
   6   5  -2   29.75    1.26 
   6   5  -2   36.94    1.17 
   6   5  -1    1.81    0.54 
   6   5  -1    2.13    0.50 
   6   5  -1    1.15    0.88 
   6   5   0   21.88    0.78 
   6   5   0   11.42    1.43 
   6   5   0   14.63    1.26 
   6   5   0    5.69    0.80 
   6   5   0   10.02    0.89 
   6   5   0   16.29    0.91 
   6   5   1   -0.36    0.80 
   6   5   1    1.56    0.51 
   6   5   1    0.51    0.51 
   6   5   1    1.86    0.35 
   6   5   1    0.54    0.82 
   6   5   1    1.81    0.72 
   6   5   2    0.27    0.43 
   6   5   2    0.48    0.43 
   6   5   2    0.15    0.58 
   6   5   2    0.25    0.30 
   6   5   2   -0.23    0.73 
   6   5   3   61.30    1.81 
   6   5   3   59.09    1.27 
   6   5   4    7.05    0.68 
   6   5   4    6.62    0.47 
   6   5   4    5.87    0.46 
   6   5   4    7.89    0.36 
   6   5   5   30.72    0.63 
   6   5   5   29.54    0.67 
   6   5   6    5.49    0.27 
   6   5   6    7.33    0.35 
   6   5   7   14.55    0.36 
   6   6  -3   -0.19    0.33 
   6   6  -3   -0.30    0.33 
   6   6  -2    4.31    0.47 
   6   6  -1   -0.24    0.34 
   6   6  -1    0.35    0.59 
   6   6  -1    0.27    0.43 
   6   6  -1   -0.35    0.44 
   6   6   0    2.74    0.57 
   6   6   0    2.43    0.55 
   6   6   1    4.37    0.58 
   6   6   1    5.19    0.60 
   6   6   1    8.86    0.43 
   6   6   1    8.61    0.49 
   6   6   2    1.22    0.30 
   6   6   2    0.48    0.32 
   6   6   2    0.67    0.37 
   6   6   2    0.44    0.36 
   6   6   3    2.59    0.33 
   6   6   3    1.96    0.36 
   6   6   3    1.53    0.36 
   6   6   4   19.30    0.60 
   6   6   4   16.51    0.58 
   6   6   5    0.33    0.24 
   6   6   6    1.23    0.19 
   6   7  -2    2.26    0.30 
   6   7  -1    1.83    0.31 
   6   7   1    0.81    0.33 
   6   7   1    1.00    0.32 
   6   7   2    0.36    0.28 
   6   7   3    0.60    0.28 
   6   7   4   10.22    0.38 
   7  -1   3    0.95    0.46 
   7  -1   4   -0.18    0.28 
   7  -1   5   -0.22    0.24 
   7   0   1    0.38    0.66 
   7   0   2    0.16    0.75 
   7   0   3    0.20    0.53 
   7   0   4   -0.21    0.41 
   7   0   5   -0.05    0.33 
   7   0   6    0.02    0.20 
   7   1   1   -0.08    0.99 
   7   1   2    0.44    0.54 
   7   1   3    0.44    0.56 
   7   1   3   -0.39    0.48 
   7   1   4   -0.13    0.34 
   7   1   4    0.28    0.35 
   7   1   4    0.05    0.39 
   7   1   5    0.58    0.36 
   7   1   6    0.23    0.22 
   7   2   0    0.08    0.50 
   7   2   1    0.66    0.57 
   7   2   2   11.11    0.93 
   7   2   2    2.00    0.97 
   7   2   3    0.07    0.53 
   7   2   4   -0.13    0.41 
   7   2   4    0.14    0.39 
   7   2   5    0.89    0.37 
   7   2   6    0.28    0.11 
   7   3  -3   10.94    0.63 
   7   3  -2    3.53    0.71 
   7   3  -1    0.38    0.64 
   7   3  -1    1.51    0.55 
   7   3   0    1.47    0.51 
   7   3   0    1.13    0.61 
   7   3   1    0.24    0.52 
   7   3   1    0.12    0.41 
   7   3   2   -0.05    0.47 
   7   3   4    0.08    0.37 
   7   3   5    3.79    0.43 
   7   3   6    0.37    0.10 
   7   4  -1    4.13    0.55 
   7   4  -1    7.93    0.61 
   7   4   0    0.93    0.35 
   7   4   0   -0.03    0.35 
   7   4   0    1.03    0.50 
   7   4   1    0.26    0.28 
   7   4   1   -0.18    0.28 
   7   4   1    0.14    0.42 
   7   4   3   26.57    0.56 
   7   4   4   23.50    0.52 
   7   4   5    0.28    0.20 
   7   4   6    2.18    0.18 
   7   5  -1    0.43    0.32 
   7   5  -1    0.53    0.32 
   7   5   0   -0.03    0.28 
   7   5   0    0.17    0.28 
   7   5   1    0.00    0.27 
   7   5   1    0.04    0.25 
   7   6  -1    0.16    0.21 
   7   6   0    0.27    0.22 
   0   0   0    0.00    0.00 
  
  
TITL mce-mecn-100k in P1 
REM P1 (#1 in standard setting) 
CELL 1.54184   6.579057   7.831066   9.991397  89.2477  86.1175  83.4153 
ZERR    2.00   0.000308   0.000234   0.000207   0.0020   0.0026   0.0031 
LATT -1 
SFAC C H N O 
UNIT 20.00 24.00 4.00 4.00 
REM  CrysAlisPro recorded range (K): Min=100.0; max=100.0; aver:100.0 
TEMP -173 
TREF 
HKLF 4 
END 
_computing_structure_solution     'SHELXT 2018/2 (Sheldrick, 2018)' 
; 
_shelx_hkl_checksum   56017 
  
