data_mce--34dhba-100k_manual
_audit_creation_date               2025-02-26
_audit_creation_method
;
Olex2 1.5
(compiled 2024.02.16 svn.r378c4104 for OlexSys, GUI svn.r6928)
;
_shelx_SHELXL_version_number       '2018/3'
_audit_contact_author_address      ?
_audit_contact_author_email        ?
_audit_contact_author_name         ''
_audit_contact_author_phone        ?
_publ_contact_author_id_orcid      ?
_publ_section_references
;
Dolomanov, O.V., Bourhis, L.J., Gildea, R.J, Howard, J.A.K. & Puschmann, H.
 (2009), J. Appl. Cryst. 42, 339-341.

Sheldrick, G.M. (2015). Acta Cryst. A71, 3-8.

Sheldrick, G.M. (2015). Acta Cryst. C71, 3-8.
;
_chemical_name_common              ?
_chemical_name_systematic          ?
_chemical_formula_moiety           'C8 H9 N O2, C7 H6 O4'
_chemical_formula_sum              'C15 H15 N O6'
_chemical_formula_weight           305.28
_chemical_melting_point            ?
_chemical_oxdiff_formula           'C11 H10 N O'
loop_
  _atom_type_symbol
  _atom_type_description
  _atom_type_scat_dispersion_real
  _atom_type_scat_dispersion_imag
  _atom_type_scat_source
 'C' 'C' 0.0181 0.0091 'International Tables Vol C Tables 4.2.6.8 and 6.1.1.4'
 'H' 'H' 0.0000 0.0000 'International Tables Vol C Tables 4.2.6.8 and 6.1.1.4'
 'N' 'N' 0.0311 0.0180 'International Tables Vol C Tables 4.2.6.8 and 6.1.1.4'
 'O' 'O' 0.0492 0.0322 'International Tables Vol C Tables 4.2.6.8 and 6.1.1.4'

_shelx_space_group_comment
;
The symmetry employed for this shelxl refinement is uniquely defined
by the following loop, which should always be used as a source of
symmetry information in preference to the above space-group names.
They are only intended as comments.
;
_space_group_crystal_system        'triclinic'
_space_group_IT_number             2
_space_group_name_H-M_alt          'P -1'
_space_group_name_Hall             '-P 1'
loop_
  _space_group_symop_operation_xyz
 'x, y, z'
 '-x, -y, -z'

_cell_length_a                     7.9593(3)
_cell_length_b                     8.9663(3)
_cell_length_c                     10.5204(4)
_cell_angle_alpha                  69.983(3)
_cell_angle_beta                   76.283(3)
_cell_angle_gamma                  83.790(3)
_cell_volume                       685.02(5)
_cell_formula_units_Z              2
_cell_measurement_reflns_used      17508
_cell_measurement_temperature      99.99(10)
_cell_measurement_theta_max        79.3000
_cell_measurement_theta_min        4.5740
_shelx_estimated_absorpt_T_max     0.935
_shelx_estimated_absorpt_T_min     0.771
_exptl_absorpt_coefficient_mu      0.980
_exptl_absorpt_correction_T_max    1.000
_exptl_absorpt_correction_T_min    0.409
_exptl_absorpt_correction_type     gaussian
_exptl_absorpt_process_details
;
CrysAlisPro 1.171.42.80a (Rigaku Oxford Diffraction, 2023)
Numerical absorption correction based on gaussian integration over
a multifaceted crystal model
Empirical absorption correction using spherical harmonics,
implemented in SCALE3 ABSPACK scaling algorithm.
;
_exptl_absorpt_special_details     ?
_exptl_crystal_colour              ?
_exptl_crystal_density_diffrn      1.480
_exptl_crystal_density_meas        ?
_exptl_crystal_density_method      ?
_exptl_crystal_description         ?
_exptl_crystal_F_000               320
loop_
  _exptl_crystal_face_index_h
  _exptl_crystal_face_index_k
  _exptl_crystal_face_index_l
  _exptl_crystal_face_perp_dist
 2 3 7 0.0633
 -4 0 2 0.1106
 -2 -3 -7 0.0495
 3 -1 -5 0.0837
 1 -5 0 0.0129
 -1 5 0 0.0568
 -1 -4 2 0.0439

_exptl_crystal_size_max            0.28
_exptl_crystal_size_mid            0.14
_exptl_crystal_size_min            0.07
loop_
  _exptl_oxdiff_crystal_face_indexfrac_h
  _exptl_oxdiff_crystal_face_indexfrac_k
  _exptl_oxdiff_crystal_face_indexfrac_l
  _exptl_oxdiff_crystal_face_x
  _exptl_oxdiff_crystal_face_y
  _exptl_oxdiff_crystal_face_z
 1.5723 3.2796 6.5988 0.1792 0.7601 0.6246
 -4.3261 -0.2059 2.1734 -0.1080 -0.4391 0.8919
 -1.8304 -3.3237 -6.5424 -0.1870 -0.7923 -0.5808
 2.8671 -1.2428 -4.6202 0.0114 0.0326 -0.9994
 0.7683 -5.4035 -0.1066 0.8954 -0.4251 -0.1324
 -0.7321 5.3946 0.0415 -0.8969 0.4259 0.1189
 -0.7832 -4.2212 2.4936 0.8181 -0.3905 0.4221

_exptl_transmission_factor_max     ?
_exptl_transmission_factor_min     ?
_diffrn_reflns_av_R_equivalents    0.0690
_diffrn_reflns_av_unetI/netI       0.0269
_diffrn_reflns_Laue_measured_fraction_full  1.000
_diffrn_reflns_Laue_measured_fraction_max  0.961
_diffrn_reflns_limit_h_max         10
_diffrn_reflns_limit_h_min         -10
_diffrn_reflns_limit_k_max         11
_diffrn_reflns_limit_k_min         -11
_diffrn_reflns_limit_l_max         13
_diffrn_reflns_limit_l_min         -12
_diffrn_reflns_number              26513
_diffrn_reflns_point_group_measured_fraction_full  1.000
_diffrn_reflns_point_group_measured_fraction_max  0.961
_diffrn_reflns_theta_full          67.684
_diffrn_reflns_theta_max           80.407
_diffrn_reflns_theta_min           4.580
_diffrn_ambient_environment        N~2~
_diffrn_ambient_temperature        99.99(10)
_diffrn_detector                   'Hybrid Pixel Array Detector'
_diffrn_detector_area_resol_mean   10.0000
_diffrn_detector_type              HyPix
_diffrn_measured_fraction_theta_full  1.000
_diffrn_measured_fraction_theta_max  0.961
_diffrn_measurement_details
;
List of Runs (angles in degrees, time in seconds):

  # Type    Start    End  Width  t~exp~   \w     \q     \k     \f   Frames
--------------------------------------------------------------------------
  1  \w   -120.00 -34.00   0.50    0.29    --  -47.47 -49.00 131.00  172
  2  \w    -24.00  55.00   0.50    0.29    --   47.47 -49.00 131.00  158
  3  \w     34.00 120.00   0.50    0.29    --   47.47  49.00 -81.00  172
  4  \w    -24.00  55.00   0.50    0.29    --   47.47 -49.00 131.00  158
  5  \w    -55.00 -19.00   0.50    1.17    --  -91.75  49.00 -81.00   72
  6  \w   -163.00 -78.00   0.50    1.17    --  -91.75 -49.00 131.00  170
  7  \w    100.00 178.00   0.50    1.17    --  113.25  49.00 -81.00  156
  8  \w    -16.00  14.00   0.50    0.29    --   18.00 102.00  -7.72   60
  9  \w    -14.00  27.00   0.50    0.29    --   18.00  98.00-154.84   82
 10  \w     -5.00  29.00   0.50    0.29    --   26.00  96.00 148.53   68
 11  \w      8.00  41.00   0.50    0.29    --   38.00  92.00-122.01   66
 12  \w     10.00  43.00   0.50    0.29    --   38.00  89.00 101.55   66
 13  \w    -55.00  25.00   0.50    0.29    --  -47.47  49.00 -81.00  160
 14  \w     25.00 120.00   0.50    0.29    --   47.47  77.00 -90.00  190
 15  \w     25.00 120.00   0.50    0.29    --   47.47  77.00 -30.00  190
 16  \w     34.00  93.00   0.50    0.29    --   47.47-125.00 -60.00  118
 17  \w     35.00 120.00   0.50    0.29    --   47.47  38.00 -30.00  170
 18  \w     25.00 120.00   0.50    0.29    --   47.47  77.00 -90.00  190
 19  \w     35.00 120.00   0.50    0.29    --   47.47  38.00  60.00  170
 20  \w     25.00 120.00   0.50    0.29    --   47.47  77.00-180.00  190
 21  \w     33.00 126.00   0.50    0.29    --   54.00  74.00 105.16  186
 22  \w     33.00 126.00   0.50    0.29    --   54.00  74.00  81.34  186
 23  \w     31.00 126.00   0.50    0.29    --   54.00  77.00  35.79  190
 24  \w     31.00 126.00   0.50    0.29    --   54.00  77.00-175.58  190
 25  \w     32.00 126.00   0.50    0.29    --   54.00  75.00  -1.15  188
 26  \w     33.00 126.00   0.50    0.29    --   54.00  74.00  81.34  186
 27  \w     31.00 126.00   0.50    0.29    --   54.00  77.00-175.58  190
 28  \w   -131.00 -35.00   0.50    0.29    --  -58.00 -76.00 159.68  192
 29  \w     36.00  62.00   0.50    0.29    --   58.00  75.00 -80.31   52
 30  \w    101.00 127.00   0.50    0.29    --   58.00  75.00 -80.31   52
 31  \w     36.00  62.00   0.50    0.29    --   58.00  75.00 -38.15   52
 32  \w     35.00  86.00   0.50    0.29    --   58.00  77.00 139.70  102
 33  \w    -74.00 -48.00   0.50    0.29    --  -66.00 -65.00 -40.28   52
 34  \w    -88.00 -53.00   0.50    0.29    --  -70.00 -68.00-163.97   70
 35  \w    -84.00 -55.00   0.50    0.29    --  -70.00 -64.00 -59.00   58
 36  \w    -84.00 -53.00   0.50    0.29    --  -70.00 -66.00 -77.55   62
 37  \w    -77.00 -52.00   0.50    0.29    --  -70.00 -64.00 104.08   50
 38  \w    -76.00 -51.00   0.50    0.29    --  -70.00 -68.00-148.85   50
 39  \w    102.00 127.00   0.50    0.29    --   70.00  77.00  19.03   50
 40  \w   -142.00-107.00   0.50    0.29    --  -70.00 -68.00-148.85   70
 41  \w     47.00  73.00   0.50    0.29    --   70.00  77.00  19.03   52
 42  \w    -83.00 -57.00   0.50    0.29    --  -74.00 -64.00 122.49   52
 43  \w    -83.00 -56.00   0.50    0.29    --  -74.00 -66.00 -94.12   54
 44  \w    -85.00 -59.00   0.50    0.29    --  -74.00 -63.00 -42.06   52
 45  \w   -143.00-117.00   0.50    0.29    --  -74.00 -66.00 -94.12   52
 46  \w    -83.00 -58.00   0.50    0.29    --  -78.00 -69.00  17.62   50
 47  \w    -95.00 -62.00   0.50    0.29    --  -78.00 -62.00  93.90   66
 48  \w    -88.00 -62.00   0.50    0.29    --  -78.00 -64.00 139.54   52
 49  \w    -85.00 -57.00   0.50    0.29    --  -78.00 -73.00  45.91   56
 50  \w    -98.00 -56.00   0.50    0.29    --  -78.00 -74.00  85.03   84
 51  \w    -90.00 -64.00   0.50    1.17    --  -82.00 -66.00 -99.34   52
 52  \w    -89.00 -64.00   0.50    1.17    --  -82.00 -64.00 -63.93   50
 53  \w    -90.00 -64.00   0.50    1.17    --  -82.00 -65.00 163.36   52
 54  \w    -87.00 -61.00   0.50    1.17    --  -82.00 -73.00  60.49   52
 55  \w    -86.00 -61.00   0.50    1.17    --  -82.00 -73.00  74.51   50
 56  \w    -95.00 -69.00   0.50    1.17    --  -86.00 -66.00-130.15   52
 57  \w    -98.00 -66.00   0.50    1.17    --  -86.00 -71.00-169.88   64
 58  \w   -143.00-117.00   0.50    1.17    --  -91.75 -77.00-120.00   52
 59  \w    -94.00 -69.00   0.50    1.17    --  -91.75 -77.00-150.00   50
 60  \w    -98.00 -72.00   0.50    1.17    --  -91.75 -75.00  53.14   52
 61  \w   -143.00 -70.00   0.50    1.17    --  -91.75 -75.00  93.42  146
 62  \w   -116.00 -71.00   0.50    1.17    --  -91.75 -71.00 -21.23   90
 63  \w   -160.00-122.00   0.50    1.17    --  -91.75 -71.00 -21.23   76
 64  \w    -99.00 -73.00   0.50    1.17    --  -91.75 -70.00 148.26   52
 65  \w   -147.00-112.00   0.50    1.17    --  -91.75 -66.00 -88.81   70
 66  \w   -105.00 -77.00   0.50    1.17    --  -91.75 -61.00  60.00   56
 67  \w   -103.00 -73.00   0.50    1.17    --  -91.75 -66.00 -88.81   60
 68  \w   -103.00 -72.00   0.50    1.17    --  -91.75 -77.00 150.00   62
 69  \w   -106.00 -78.00   0.50    1.17    --  -91.75 -64.00 -57.36   56
 70  \w   -125.00 -75.00   0.50    1.17    --  -91.75 -65.00 147.01  100
 71  \w   -148.00-122.00   0.50    1.17    --  -91.75 -61.00  60.00   52
 72  \w   -107.00 -71.00   0.50    1.17    --  -91.75 -71.00 -62.26   72
 73  \w    -68.00 -33.00   0.50    1.17    --  -91.75  61.00-120.00   70
 74  \w   -161.00-115.00   0.50    1.17    --  -91.75 -71.00 -62.26   92
 75  \w    -97.00 -71.00   0.50    1.17    --  -91.75 -77.00   9.89   52
 76  \w    -94.00 -69.00   0.50    1.17    --  -91.75 -77.00-180.00   50
 77  \w   -103.00 -69.00   0.50    1.17    --  -91.75 -77.00 128.13   68
 78  \w   -140.00-114.00   0.50    1.17    --  -91.75 -77.00-180.00   52
 79  \w   -158.00-133.00   0.50    1.17    --  -91.75 -73.00-137.73   50
 80  \w   -161.00-136.00   0.50    1.17    --  -91.75 -77.00-150.00   50
 81  \w    -97.00 -71.00   0.50    1.17    --  -91.75 -74.00  36.60   52
 82  \w   -112.00 -72.00   0.50    1.17    --  -91.75 -75.00  19.85   80
 83  \w   -102.00 -71.00   0.50    1.17    --  -91.75 -73.00-137.73   62
 84  \w    -69.00 -19.00   0.50    1.17    --  -91.75  61.00  90.00  100
 85  \w   -101.00 -71.00   0.50    1.17    --  -91.75 -77.00 -30.00   60
 86  \w    -96.00 -71.00   0.50    1.17    --  -91.75 -73.00 -98.48   50
 87  \w    -95.00 -69.00   0.50    1.17    --  -91.75 -77.00-120.00   52
 88  \w   -160.00-125.00   0.50    1.17    --  -91.75 -75.00  19.85   70
 89  \w   -105.00 -73.00   0.50    1.17    --  -91.75 -67.00 175.69   64
 90  \w    109.00 135.00   0.50    1.17    --  113.25  30.00-180.00   52
 91  \w     45.00  71.00   0.50    1.17    --  113.25-125.00 -30.00   52
 92  \w     51.00 111.00   0.50    1.17    --  113.25-125.00   0.00  120
 93  \w     80.00 105.00   0.50    1.17    --  113.25 -77.00  30.00   50
 94  \w     43.00  69.00   0.50    1.17    --  113.25 -77.00  30.00   52
 95  \w     76.00 104.00   0.50    1.17    --  113.25 -77.00  60.00   56
 96  \w     46.00  71.00   0.50    1.17    --  113.25 -61.00-180.00   50
 97  \w    143.00 178.00   0.50    1.17    --  113.25   0.00 150.00   70
 98  \w     77.00 103.00   0.50    1.17    --  113.25   0.00 150.00   52
 99  \w     48.00  74.00   0.50    1.17    --  113.25 -77.00  60.00   52
100  \w     77.00 103.00   0.50    1.17    --  113.25-125.00 -90.00   52
101  \w     44.00  70.00   0.50    1.17    --  113.25-125.00 -90.00   52
102  \w     41.00  69.00   0.50    1.17    --  113.25   0.00 150.00   56
103  \w    133.00 178.00   0.50    1.17    --  113.25  61.00  30.00   90
104  \w    100.00 126.00   0.50    1.17    --  113.25  61.00  30.00   52
105  \w     46.00  71.00   0.50    1.17    --  113.25 -61.00  60.00   50
106  \w     72.00  99.00   0.50    1.17    --  113.25 -95.00 150.00   54
107  \w    137.00 163.00   0.50    1.17    --  113.25  77.00-120.00   52
108  \w     42.00  70.00   0.50    1.17    --  113.25 -61.00 150.00   56
109  \w     91.00 176.00   0.50    1.17    --  113.25  77.00  90.00  170
110  \w     93.00 136.00   0.50    1.17    --  113.25  77.00-120.00   86
111  \w    100.00 177.00   0.50    1.17    --  113.25  61.00 -60.00  154
112  \w    147.00 177.00   0.50    1.17    --  113.25  45.00 150.00   60
113  \w    101.00 142.00   0.50    1.17    --  113.25  45.00 150.00   82
114  \w     50.00  93.00   0.50    1.17    --  113.25 -77.00-120.00   86
115  \w    114.00 178.00   0.50    1.17    --  113.25  45.00-150.00  128
116  \w     44.00 107.00   0.50    1.17    --  113.25-125.00  30.00  126
117  \w     64.00  97.00   0.50    1.17    --  113.25 -95.00-120.00   66
118  \w     44.00 106.00   0.50    1.17    --  113.25-125.00  60.00  124
119  \w     94.00 121.00   0.50    1.17    --  113.25  77.00   0.00   54
120  \w     97.00 176.00   0.50    1.17    --  113.25  77.00 -30.00  158
121  \w    132.00 176.00   0.50    1.17    --  113.25  77.00 -90.00   88
122  \w     91.00 126.00   0.50    1.17    --  113.25  77.00 -90.00   70
123  \w    144.00 169.00   0.50    1.17    --  113.25  77.00-180.00   50
124  \w     97.00 142.00   0.50    1.17    --  113.25  77.00-180.00   90
125  \w     75.00 109.00   0.50    1.17    --  113.25-125.00-180.00   68
126  \w     48.00  73.00   0.50    1.17    --  113.25-125.00-180.00   50
127  \w    105.00 175.00   0.50    1.17    --  113.25  77.00  60.00  140
128  \w     81.00 107.00   0.50    1.17    --  113.25-125.00-150.00   52
;
_diffrn_measurement_device         'four-circle diffractometer'
_diffrn_measurement_device_type    'XtaLAB Synergy, Dualflex, HyPix'
_diffrn_measurement_method         '\w scans'
_diffrn_orient_matrix_type        
 'CrysAlisPro convention (1999,Acta A55,543-557)'
_diffrn_orient_matrix_UB_11        0.0760627000
_diffrn_orient_matrix_UB_12        -0.1566073000
_diffrn_orient_matrix_UB_13        0.0868647000
_diffrn_orient_matrix_UB_21        0.1172365000
_diffrn_orient_matrix_UB_22        0.0945506000
_diffrn_orient_matrix_UB_23        0.0402666000
_diffrn_orient_matrix_UB_31        -0.1421291000
_diffrn_orient_matrix_UB_32        0.0017691000
_diffrn_orient_matrix_UB_33        0.1276366000
_diffrn_radiation_monochromator    mirror
_diffrn_radiation_probe            x-ray
_diffrn_radiation_type             'Cu K\a'
_diffrn_radiation_wavelength       1.54184
_diffrn_source                     'micro-focus sealed X-ray tube'
_diffrn_source_type                'PhotonJet (Cu) X-ray Source'
_reflns_Friedel_coverage           0.000
_reflns_Friedel_fraction_full      .
_reflns_Friedel_fraction_max       .
_reflns_number_gt                  2641
_reflns_number_total               2893
_reflns_special_details
;
 Reflections were merged by SHELXL according to the crystal
 class for the calculation of statistics and refinement.
 
 _reflns_Friedel_fraction is defined as the number of unique
 Friedel pairs measured divided by the number that would be
 possible theoretically, ignoring centric projections and
 systematic absences.
;
_reflns_threshold_expression       'I > 2\s(I)'
_computing_cell_refinement         'CrysAlisPro 1.171.42.80a (Rigaku OD, 2023)'
_computing_data_collection         'CrysAlisPro 1.171.42.80a (Rigaku OD, 2023)'
_computing_data_reduction          'CrysAlisPro 1.171.42.80a (Rigaku OD, 2023)'
_computing_molecular_graphics      'Olex2 1.5 (Dolomanov et al., 2009)'
_computing_publication_material    'Olex2 1.5 (Dolomanov et al., 2009)'
_computing_structure_refinement    'SHELXL 2018/3 (Sheldrick, 2015)'
_computing_structure_solution      'SHELXT 2018/2 (Sheldrick, 2018)'
_refine_diff_density_max           0.225
_refine_diff_density_min           -0.303
_refine_diff_density_rms           0.058
_refine_ls_extinction_coef         .
_refine_ls_extinction_method       none
_refine_ls_goodness_of_fit_ref     1.094
_refine_ls_hydrogen_treatment      mixed
_refine_ls_matrix_type             full
_refine_ls_number_parameters       208
_refine_ls_number_reflns           2893
_refine_ls_number_restraints       0
_refine_ls_R_factor_all            0.0430
_refine_ls_R_factor_gt             0.0404
_refine_ls_restrained_S_all        1.094
_refine_ls_shift/su_max            0.001
_refine_ls_shift/su_mean           0.000
_refine_ls_structure_factor_coef   Fsqd
_refine_ls_weighting_details      
 'w=1/[\s^2^(Fo^2^)+(0.0613P)^2^+0.2173P] where P=(Fo^2^+2Fc^2^)/3'
_refine_ls_weighting_scheme        calc
_refine_ls_wR_factor_gt            0.1115
_refine_ls_wR_factor_ref           0.1139
_refine_special_details            ?
_olex2_refinement_description
;
1. Fixed Uiso
 At 1.2 times of:
  All C(H) groups
 At 1.5 times of:
  All C(H,H,H) groups, All O(H) groups
2.a Aromatic/amide H refined with riding coordinates:
 C008(H008), C00G(H00G), C00H(H00H), C00I(H00I), C00J(H00J), C00K(H00K),
 C00L(H00L)
2.b Idealised Me refined as rotating group:
 C00M(H00A,H00B,H00C)
2.c Idealised tetrahedral OH refined as rotating group:
 O001(H001), O002(H002), O003(H003), O005(H005)
;
_atom_sites_solution_hydrogens     mixed
_atom_sites_solution_primary       dual
_atom_sites_solution_secondary     ?
loop_
  _atom_site_label
  _atom_site_type_symbol
  _atom_site_fract_x
  _atom_site_fract_y
  _atom_site_fract_z
  _atom_site_U_iso_or_equiv
  _atom_site_adp_type
  _atom_site_occupancy
  _atom_site_site_symmetry_order
  _atom_site_calc_flag
  _atom_site_refinement_flags_posn
  _atom_site_refinement_flags_adp
  _atom_site_refinement_flags_occupancy
  _atom_site_disorder_assembly
  _atom_site_disorder_group
 O001 O 0.30801(12) 0.40221(10) 0.15588(9) 0.0222(2) Uani 1 1 d . . . . .
 H001 H 0.336979 0.497234 0.116995 0.033 Uiso 1 1 calc R U . . .
 O002 O 0.48158(12) 1.04217(10) 0.22390(9) 0.0221(2) Uani 1 1 d . . . . .
 H002 H 0.447922 0.954726 0.282975 0.033 Uiso 1 1 calc R U . . .
 O003 O 0.59097(12) 1.29627(10) 0.00449(10) 0.0232(2) Uani 1 1 d . . . . .
 H003 H 0.508112 1.285586 0.073095 0.035 Uiso 1 1 calc R U . . .
 O004 O 0.85504(12) 0.57662(10) 0.11124(9) 0.0238(2) Uani 1 1 d . . . . .
 O005 O 1.01760(12) 0.70305(10) -0.09689(9) 0.0228(2) Uani 1 1 d . . . . .
 H005 H 1.053537 0.609928 -0.091461 0.034 Uiso 1 1 calc R U . . .
 O006 O 0.36411(13) 0.76006(11) 0.39198(10) 0.0268(2) Uani 1 1 d . . . . .
 N007 N 0.26780(14) 0.54030(12) 0.57204(11) 0.0207(2) Uani 1 1 d . . . . .
 C008 C 0.29137(16) 0.47621(14) 0.35778(13) 0.0198(3) Uani 1 1 d . . . . .
 H008 H 0.355852 0.568400 0.303460 0.024 Uiso 1 1 calc R U . . .
 C009 C 0.81459(16) 0.85657(14) 0.00992(13) 0.0192(3) Uani 1 1 d . . . . .
 C00A C 0.25266(16) 0.37299(14) 0.29613(13) 0.0197(3) Uani 1 1 d . . . . .
 C00B C 0.23416(16) 0.44232(14) 0.50028(13) 0.0194(3) Uani 1 1 d . . . . .
 C00C C 0.89569(16) 0.70013(14) 0.01326(13) 0.0197(3) Uani 1 1 d . . . . .
 C00D C 0.32574(16) 0.69043(14) 0.51786(13) 0.0207(3) Uani 1 1 d . . . . .
 C00E C 0.66549(16) 1.15098(14) 0.00765(13) 0.0193(3) Uani 1 1 d . . . . .
 C00F C 0.60864(16) 1.01619(14) 0.12129(13) 0.0186(3) Uani 1 1 d . . . . .
 C00G C 0.68234(16) 0.86891(14) 0.12108(13) 0.0189(3) Uani 1 1 d . . . . .
 H00G H 0.643238 0.776236 0.196295 0.023 Uiso 1 1 calc R U . . .
 C00H C 0.87121(16) 0.99222(15) -0.10133(13) 0.0205(3) Uani 1 1 d . . . . .
 H00H H 0.961596 0.983951 -0.176149 0.025 Uiso 1 1 calc R U . . .
 C00I C 0.14161(16) 0.30521(15) 0.57935(13) 0.0222(3) Uani 1 1 d . . . . .
 H00I H 0.103184 0.281375 0.676629 0.027 Uiso 1 1 calc R U . . .
 C00J C 0.79522(17) 1.13912(14) -0.10240(13) 0.0210(3) Uani 1 1 d . . . . .
 H00J H 0.832244 1.231528 -0.178645 0.025 Uiso 1 1 calc R U . . .
 C00K C 0.16076(17) 0.23622(15) 0.37328(13) 0.0223(3) Uani 1 1 d . . . . .
 H00K H 0.135920 0.166448 0.329983 0.027 Uiso 1 1 calc R U . . .
 C00L C 0.10609(17) 0.20404(15) 0.51524(14) 0.0238(3) Uani 1 1 d . . . . .
 H00L H 0.043144 0.110921 0.569495 0.029 Uiso 1 1 calc R U . . .
 C00M C 0.33912(18) 0.76884(16) 0.62026(14) 0.0259(3) Uani 1 1 d . . . . .
 H00A H 0.449233 0.823065 0.590542 0.039 Uiso 1 1 calc R U . . .
 H00B H 0.333692 0.688269 0.711700 0.039 Uiso 1 1 calc R U . . .
 H00C H 0.243172 0.846351 0.625373 0.039 Uiso 1 1 calc R U . . .
 H007 H 0.237(2) 0.497(2) 0.6623(19) 0.024(4) Uiso 1 1 d . . . . .

loop_
  _atom_site_aniso_label
  _atom_site_aniso_U_11
  _atom_site_aniso_U_22
  _atom_site_aniso_U_33
  _atom_site_aniso_U_23
  _atom_site_aniso_U_13
  _atom_site_aniso_U_12
 O001 0.0308(5) 0.0157(4) 0.0178(5) -0.0057(3) 0.0005(4) -0.0032(3)
 O002 0.0261(5) 0.0160(4) 0.0213(5) -0.0071(3) 0.0023(4) -0.0009(3)
 O003 0.0262(5) 0.0144(4) 0.0239(5) -0.0056(3) 0.0023(4) 0.0011(3)
 O004 0.0321(5) 0.0172(4) 0.0196(5) -0.0063(4) -0.0019(4) 0.0025(3)
 O005 0.0259(5) 0.0183(4) 0.0229(5) -0.0090(4) -0.0004(4) 0.0019(3)
 O006 0.0368(5) 0.0208(4) 0.0209(5) -0.0068(4) -0.0006(4) -0.0064(4)
 N007 0.0251(5) 0.0195(5) 0.0166(5) -0.0066(4) -0.0020(4) 0.0003(4)
 C008 0.0216(6) 0.0160(5) 0.0197(6) -0.0053(5) -0.0017(5) 0.0004(4)
 C009 0.0217(6) 0.0177(6) 0.0200(6) -0.0075(5) -0.0064(5) 0.0000(4)
 C00A 0.0218(6) 0.0177(6) 0.0182(6) -0.0061(5) -0.0026(5) 0.0021(4)
 C00B 0.0197(6) 0.0176(6) 0.0207(6) -0.0072(5) -0.0044(5) 0.0026(4)
 C00C 0.0230(6) 0.0195(6) 0.0184(6) -0.0084(5) -0.0050(5) 0.0002(5)
 C00D 0.0196(6) 0.0204(6) 0.0218(6) -0.0088(5) -0.0019(5) 0.0007(4)
 C00E 0.0218(6) 0.0148(5) 0.0220(6) -0.0067(5) -0.0059(5) 0.0006(4)
 C00F 0.0192(6) 0.0191(6) 0.0189(6) -0.0079(5) -0.0034(5) -0.0017(4)
 C00G 0.0224(6) 0.0161(5) 0.0189(6) -0.0059(5) -0.0053(5) -0.0011(4)
 C00H 0.0217(6) 0.0208(6) 0.0191(6) -0.0080(5) -0.0028(5) -0.0001(5)
 C00I 0.0229(6) 0.0229(6) 0.0182(6) -0.0049(5) -0.0023(5) -0.0005(5)
 C00J 0.0235(6) 0.0172(6) 0.0200(6) -0.0039(5) -0.0034(5) -0.0017(4)
 C00K 0.0255(6) 0.0193(6) 0.0225(6) -0.0070(5) -0.0050(5) -0.0018(5)
 C00L 0.0252(6) 0.0198(6) 0.0230(6) -0.0030(5) -0.0025(5) -0.0048(5)
 C00M 0.0300(7) 0.0242(6) 0.0257(7) -0.0129(5) -0.0041(5) 0.0009(5)

_geom_special_details
;
 All esds (except the esd in the dihedral angle between two l.s. planes)
 are estimated using the full covariance matrix.  The cell esds are taken
 into account individually in the estimation of esds in distances, angles
 and torsion angles; correlations between esds in cell parameters are only
 used when they are defined by crystal symmetry.  An approximate (isotropic)
 treatment of cell esds is used for estimating esds involving l.s. planes.
;
loop_
  _geom_bond_atom_site_label_1
  _geom_bond_atom_site_label_2
  _geom_bond_distance
  _geom_bond_site_symmetry_2
  _geom_bond_publ_flag
 O001 H001 0.8400 . ?
 O001 C00A 1.3755(15) . ?
 O002 H002 0.8400 . ?
 O002 C00F 1.3586(15) . ?
 O003 H003 0.8400 . ?
 O003 C00E 1.3648(14) . ?
 O004 C00C 1.2375(15) . ?
 O005 H005 0.8400 . ?
 O005 C00C 1.3178(16) . ?
 O006 C00D 1.2329(16) . ?
 N007 C00B 1.4193(16) . ?
 N007 C00D 1.3542(16) . ?
 N007 H007 0.877(18) . ?
 C008 H008 0.9500 . ?
 C008 C00A 1.3927(17) . ?
 C008 C00B 1.3934(17) . ?
 C009 C00C 1.4719(17) . ?
 C009 C00G 1.4026(18) . ?
 C009 C00H 1.3950(18) . ?
 C00A C00K 1.3887(17) . ?
 C00B C00I 1.3969(17) . ?
 C00D C00M 1.5018(17) . ?
 C00E C00F 1.4026(17) . ?
 C00E C00J 1.3826(18) . ?
 C00F C00G 1.3863(17) . ?
 C00G H00G 0.9500 . ?
 C00H H00H 0.9500 . ?
 C00H C00J 1.3862(17) . ?
 C00I H00I 0.9500 . ?
 C00I C00L 1.3866(18) . ?
 C00J H00J 0.9500 . ?
 C00K H00K 0.9500 . ?
 C00K C00L 1.3882(18) . ?
 C00L H00L 0.9500 . ?
 C00M H00A 0.9800 . ?
 C00M H00B 0.9800 . ?
 C00M H00C 0.9800 . ?

loop_
  _geom_angle_atom_site_label_1
  _geom_angle_atom_site_label_2
  _geom_angle_atom_site_label_3
  _geom_angle
  _geom_angle_site_symmetry_1
  _geom_angle_site_symmetry_3
  _geom_angle_publ_flag
 C00A O001 H001 109.5 . . ?
 C00F O002 H002 109.5 . . ?
 C00E O003 H003 109.5 . . ?
 C00C O005 H005 109.5 . . ?
 C00B N007 H007 112.6(11) . . ?
 C00D N007 C00B 127.93(11) . . ?
 C00D N007 H007 119.2(11) . . ?
 C00A C008 H008 120.5 . . ?
 C00A C008 C00B 119.04(11) . . ?
 C00B C008 H008 120.5 . . ?
 C00G C009 C00C 119.48(11) . . ?
 C00H C009 C00C 120.39(12) . . ?
 C00H C009 C00G 120.12(11) . . ?
 O001 C00A C008 120.60(11) . . ?
 O001 C00A C00K 117.68(11) . . ?
 C00K C00A C008 121.70(11) . . ?
 C008 C00B N007 122.99(11) . . ?
 C008 C00B C00I 119.96(11) . . ?
 C00I C00B N007 117.05(11) . . ?
 O004 C00C O005 122.65(11) . . ?
 O004 C00C C009 123.27(12) . . ?
 O005 C00C C009 114.07(11) . . ?
 O006 C00D N007 122.36(12) . . ?
 O006 C00D C00M 121.54(11) . . ?
 N007 C00D C00M 116.09(11) . . ?
 O003 C00E C00F 119.75(11) . . ?
 O003 C00E C00J 119.20(11) . . ?
 C00J C00E C00F 121.05(11) . . ?
 O002 C00F C00E 115.94(11) . . ?
 O002 C00F C00G 125.05(11) . . ?
 C00G C00F C00E 119.01(12) . . ?
 C009 C00G H00G 120.0 . . ?
 C00F C00G C009 120.07(11) . . ?
 C00F C00G H00G 120.0 . . ?
 C009 C00H H00H 120.1 . . ?
 C00J C00H C009 119.82(12) . . ?
 C00J C00H H00H 120.1 . . ?
 C00B C00I H00I 120.1 . . ?
 C00L C00I C00B 119.71(12) . . ?
 C00L C00I H00I 120.1 . . ?
 C00E C00J C00H 119.91(12) . . ?
 C00E C00J H00J 120.0 . . ?
 C00H C00J H00J 120.0 . . ?
 C00A C00K H00K 120.8 . . ?
 C00L C00K C00A 118.33(11) . . ?
 C00L C00K H00K 120.8 . . ?
 C00I C00L C00K 121.26(11) . . ?
 C00I C00L H00L 119.4 . . ?
 C00K C00L H00L 119.4 . . ?
 C00D C00M H00A 109.5 . . ?
 C00D C00M H00B 109.5 . . ?
 C00D C00M H00C 109.5 . . ?
 H00A C00M H00B 109.5 . . ?
 H00A C00M H00C 109.5 . . ?
 H00B C00M H00C 109.5 . . ?

loop_
  _geom_torsion_atom_site_label_1
  _geom_torsion_atom_site_label_2
  _geom_torsion_atom_site_label_3
  _geom_torsion_atom_site_label_4
  _geom_torsion
  _geom_torsion_site_symmetry_1
  _geom_torsion_site_symmetry_2
  _geom_torsion_site_symmetry_3
  _geom_torsion_site_symmetry_4
  _geom_torsion_publ_flag
 O001 C00A C00K C00L 179.14(11) . . . . ?
 O002 C00F C00G C009 -179.21(11) . . . . ?
 O003 C00E C00F O002 -1.14(17) . . . . ?
 O003 C00E C00F C00G 178.20(10) . . . . ?
 O003 C00E C00J C00H -179.45(11) . . . . ?
 N007 C00B C00I C00L -179.43(11) . . . . ?
 C008 C00A C00K C00L 0.44(19) . . . . ?
 C008 C00B C00I C00L -0.47(18) . . . . ?
 C009 C00H C00J C00E 0.96(18) . . . . ?
 C00A C008 C00B N007 179.83(11) . . . . ?
 C00A C008 C00B C00I 0.93(18) . . . . ?
 C00A C00K C00L C00I 0.0(2) . . . . ?
 C00B N007 C00D O006 -3.0(2) . . . . ?
 C00B N007 C00D C00M 176.36(11) . . . . ?
 C00B C008 C00A O001 -179.59(11) . . . . ?
 C00B C008 C00A C00K -0.92(19) . . . . ?
 C00B C00I C00L C00K -0.02(19) . . . . ?
 C00C C009 C00G C00F 177.95(10) . . . . ?
 C00C C009 C00H C00J -179.19(11) . . . . ?
 C00D N007 C00B C008 14.1(2) . . . . ?
 C00D N007 C00B C00I -167.01(12) . . . . ?
 C00E C00F C00G C009 1.50(18) . . . . ?
 C00F C00E C00J C00H -0.04(19) . . . . ?
 C00G C009 C00C O004 -1.11(18) . . . . ?
 C00G C009 C00C O005 179.71(10) . . . . ?
 C00G C009 C00H C00J -0.64(18) . . . . ?
 C00H C009 C00C O004 177.45(11) . . . . ?
 C00H C009 C00C O005 -1.73(16) . . . . ?
 C00H C009 C00G C00F -0.61(18) . . . . ?
 C00J C00E C00F O002 179.46(11) . . . . ?
 C00J C00E C00F C00G -1.19(18) . . . . ?

_shelx_res_file
;
TITL mce--34dhba-100k_manual_a.res in P-1
    mce--34dhba-100k_manual.res
    created by SHELXL-2018/3 at 16:32:36 on 26-Feb-2025
REM Old TITL mce--34dhba-100k_manual_a.res in P-1
REM SHELXT solution in P-1: R1 0.099, Rweak 0.003, Alpha 0.022
REM <I/s> 0.000 for 0 systematic absences, Orientation as input
REM Formula found by SHELXT: C15 N O6
CELL 1.54184 7.9593 8.9663 10.5204 69.983 76.283 83.79
ZERR 2 0.0003 0.0003 0.0004 0.003 0.003 0.003
LATT 1
SFAC C H N O
UNIT 30 30 2 12

L.S. 10
PLAN  5
SIZE 0.07 0.14 0.28
TEMP -173
CONF
list 4
MORE -1
BOND $H
fmap 2 53
acta
REM <olex2.extras>
REM <HklSrc "%.\\MCE--34DHBA-100K_manual.hkl">
REM </olex2.extras>

WGHT    0.061300    0.217300
FVAR       0.75457
O001  4    0.308009    0.402210    0.155878    11.00000    0.03079    0.01572 =
         0.01785   -0.00572    0.00052   -0.00315
AFIX 147
H001  2    0.336979    0.497234    0.116995    11.00000   -1.50000
AFIX   0

O002  4    0.481575    1.042168    0.223900    11.00000    0.02606    0.01601 =
         0.02128   -0.00708    0.00229   -0.00089
AFIX 147
H002  2    0.447922    0.954726    0.282975    11.00000   -1.50000
AFIX   0
O003  4    0.590966    1.296274    0.004489    11.00000    0.02620    0.01442 =
         0.02394   -0.00562    0.00226    0.00111
AFIX 147
H003  2    0.508112    1.285586    0.073095    11.00000   -1.50000
AFIX   0
O004  4    0.855044    0.576623    0.111244    11.00000    0.03210    0.01724 =
         0.01964   -0.00626   -0.00192    0.00249
O005  4    1.017604    0.703045   -0.096886    11.00000    0.02587    0.01830 =
         0.02285   -0.00898   -0.00042    0.00188
AFIX 147
H005  2    1.053537    0.609928   -0.091461    11.00000   -1.50000
AFIX   0

O006  4    0.364110    0.760063    0.391981    11.00000    0.03684    0.02084 =
         0.02090   -0.00677   -0.00064   -0.00639
N007  3    0.267805    0.540304    0.572038    11.00000    0.02510    0.01946 =
         0.01660   -0.00663   -0.00205    0.00034
C008  1    0.291372    0.476213    0.357779    11.00000    0.02159    0.01602 =
         0.01966   -0.00534   -0.00174    0.00035
AFIX  43
H008  2    0.355852    0.568400    0.303460    11.00000   -1.20000
AFIX   0

C009  1    0.814594    0.856573    0.009916    11.00000    0.02173    0.01770 =
         0.01996   -0.00749   -0.00638    0.00005
C00A  1    0.252660    0.372985    0.296135    11.00000    0.02178    0.01773 =
         0.01816   -0.00608   -0.00256    0.00208
C00B  1    0.234158    0.442319    0.500279    11.00000    0.01974    0.01763 =
         0.02068   -0.00716   -0.00440    0.00260
C00C  1    0.895691    0.700133    0.013261    11.00000    0.02296    0.01949 =
         0.01840   -0.00837   -0.00501    0.00016
C00D  1    0.325740    0.690432    0.517856    11.00000    0.01963    0.02037 =
         0.02183   -0.00882   -0.00188    0.00072
C00E  1    0.665487    1.150979    0.007653    11.00000    0.02179    0.01481 =
         0.02203   -0.00668   -0.00587    0.00059
C00F  1    0.608639    1.016186    0.121292    11.00000    0.01921    0.01910 =
         0.01886   -0.00790   -0.00338   -0.00174
C00G  1    0.682344    0.868907    0.121076    11.00000    0.02238    0.01607 =
         0.01887   -0.00589   -0.00526   -0.00113
AFIX  43
H00G  2    0.643238    0.776236    0.196295    11.00000   -1.20000
AFIX   0
C00H  1    0.871211    0.992225   -0.101329    11.00000    0.02171    0.02081 =
         0.01912   -0.00804   -0.00281   -0.00010
AFIX  43
H00H  2    0.961596    0.983951   -0.176149    11.00000   -1.20000
AFIX   0

C00I  1    0.141614    0.305205    0.579354    11.00000    0.02295    0.02292 =
         0.01821   -0.00491   -0.00233   -0.00054
AFIX  43
H00I  2    0.103184    0.281375    0.676629    11.00000   -1.20000
AFIX   0

C00J  1    0.795224    1.139121   -0.102396    11.00000    0.02352    0.01723 =
         0.02004   -0.00391   -0.00338   -0.00166
AFIX  43
H00J  2    0.832244    1.231528   -0.178645    11.00000   -1.20000
AFIX   0

C00K  1    0.160756    0.236225    0.373278    11.00000    0.02547    0.01927 =
         0.02249   -0.00704   -0.00505   -0.00184
AFIX  43
H00K  2    0.135920    0.166448    0.329983    11.00000   -1.20000
AFIX   0
C00L  1    0.106091    0.204036    0.515239    11.00000    0.02515    0.01979 =
         0.02297   -0.00304   -0.00254   -0.00482
AFIX  43
H00L  2    0.043144    0.110921    0.569495    11.00000   -1.20000
AFIX   0
C00M  1    0.339122    0.768840    0.620263    11.00000    0.03004    0.02418 =
         0.02566   -0.01286   -0.00407    0.00087
AFIX 137
H00A  2    0.449233    0.823065    0.590542    11.00000   -1.50000
H00B  2    0.333692    0.688269    0.711700    11.00000   -1.50000
H00C  2    0.243172    0.846351    0.625373    11.00000   -1.50000
AFIX   0
H007  2    0.236501    0.497429    0.662261    11.00000    0.02363
HKLF 4




REM  mce--34dhba-100k_manual_a.res in P-1
REM wR2 = 0.1139, GooF = S = 1.094, Restrained GooF = 1.094 for all data
REM R1 = 0.0404 for 2641 Fo > 4sig(Fo) and 0.0430 for all 2893 data
REM 208 parameters refined using 0 restraints

END

WGHT      0.0613      0.2173

REM Highest difference peak  0.225,  deepest hole -0.303,  1-sigma level  0.058
Q1    1   0.1988  0.3629  0.5421  11.00000  0.05    0.23
Q2    1   0.3332  0.7334  0.5622  11.00000  0.05    0.20
Q3    1   0.2693  0.4259  0.3298  11.00000  0.05    0.18
Q4    1   0.2401  0.2838  0.3448  11.00000  0.05    0.18
Q5    1   0.2369  0.4604  0.4342  11.00000  0.05    0.18
;
_shelx_res_checksum                87992
_shelx_hkl_file
;
 -10  -2  -4    8.20    0.65
 -10  -2  -3    0.41    0.21
 -10  -2  -2   -0.04    0.17
 -10  -1  -3    3.84    0.44
 -10   0  -2   -0.08    0.18
 -10   0  -2    0.17    0.13
  -9  -5  -7    9.72    0.86
  -9  -5  -7   12.74    0.81
  -9  -5  -6    0.16    0.21
  -9  -5  -5    1.10    0.28
  -9  -5  -4   20.81    2.01
  -9  -5  -4   15.35    1.12
  -9  -4  -8    5.04    0.56
  -9  -4  -8    5.16    0.46
  -9  -4  -7    2.72    0.50
  -9  -4  -7    3.10    0.41
  -9  -4  -6    1.14    0.78
  -9  -4  -6    0.75    0.31
  -9  -4  -5   52.21    2.91
  -9  -4  -5   47.06    3.81
  -9  -4  -5   43.75    2.92
  -9  -4  -4   22.83    1.46
  -9  -4  -4   21.30    2.35
  -9  -4  -4   18.27    1.42
  -9  -4  -3   34.30    2.19
  -9  -4  -2    0.74    0.85
  -9  -4  -2    0.46    0.29
  -9  -4  -1    0.08    0.25
  -9  -4   0   33.03    2.01
  -9  -3  -8    3.95    0.44
  -9  -3  -7    0.34    0.29
  -9  -3  -6    3.16    0.96
  -9  -3  -6    2.89    0.50
  -9  -3  -5   29.16    2.83
  -9  -3  -4   10.33    1.74
  -9  -3  -4    9.41    0.91
  -9  -3  -3   25.64    1.79
  -9  -3  -2    1.94    0.53
  -9  -3  -2    1.80    1.06
  -9  -3  -2    1.57    0.39
  -9  -3  -1    1.89    0.87
  -9  -3  -1    2.73    0.51
  -9  -3  -1    1.11    0.28
  -9  -3   0    4.45    0.42
  -9  -3   0    6.26    0.62
  -9  -3   1    1.09    0.29
  -9  -2  -7    4.81    0.44
  -9  -2  -6    0.49    0.73
  -9  -2  -6    0.02    0.22
  -9  -2  -6    0.24    0.33
  -9  -2  -5   12.72    1.75
  -9  -2  -5   10.18    0.84
  -9  -2  -5   12.09    1.04
  -9  -2  -4    5.21    1.37
  -9  -2  -4    4.95    0.66
  -9  -2  -4    4.99    0.53
  -9  -2  -3   35.86    3.33
  -9  -2  -3   34.23    2.12
  -9  -2  -3   33.60    2.27
  -9  -2  -2   -0.97    1.15
  -9  -2  -2    0.46    0.32
  -9  -2  -1    0.09    0.37
  -9  -2  -1   -0.06    0.29
  -9  -2  -1   -0.28    0.94
  -9  -2  -1   -0.03    0.27
  -9  -2   0   10.46    0.89
  -9  -2   0    8.91    0.74
  -9  -2   1    3.60    0.42
  -9  -2   2    1.28    0.20
  -9  -1  -8    2.29    0.26
  -9  -1  -8    1.91    0.26
  -9  -1  -7   15.47    1.03
  -9  -1  -7   17.70    1.13
  -9  -1  -6    2.56    0.40
  -9  -1  -6    2.13    0.43
  -9  -1  -5   11.87    1.04
  -9  -1  -5   11.50    0.96
  -9  -1  -4    9.06    0.83
  -9  -1  -4    8.58    0.87
  -9  -1  -3    2.95    1.19
  -9  -1  -3    1.49    0.44
  -9  -1  -3    1.93    0.41
  -9  -1  -2    3.13    0.50
  -9  -1  -2    2.75    0.45
  -9  -1  -1    5.85    1.36
  -9  -1  -1    3.55    0.62
  -9  -1   0    0.71    0.36
  -9  -1   0    0.80    0.34
  -9  -1   1   25.90    1.69
  -9  -1   1   29.28    1.81
  -9  -1   1   23.45    1.61
  -9  -1   2    9.58    0.72
  -9  -1   2    8.60    0.64
  -9   0  -7   11.32    0.75
  -9   0  -7   11.68    0.76
  -9   0  -6    4.70    0.52
  -9   0  -6    4.82    0.53
  -9   0  -5   51.25    2.81
  -9   0  -5   49.89    2.82
  -9   0  -4    6.92    0.72
  -9   0  -3    1.76    0.36
  -9   0  -3    2.24    0.46
  -9   0  -2   45.41    2.72
  -9   0  -2   50.81    2.81
  -9   0  -1    0.56    0.32
  -9   0  -1    0.43    0.42
  -9   0   0    8.08    0.90
  -9   0   1    1.10    0.36
  -9   0   1    0.90    0.38
  -9   0   1    0.61    0.33
  -9   0   2   14.83    1.00
  -9   0   2   12.00    0.96
  -9   0   2   13.18    0.94
  -9   0   3   26.98    1.62
  -9   1  -7   15.71    1.01
  -9   1  -6    4.37    0.48
  -9   1  -5    1.00    0.34
  -9   1  -5    1.18    0.38
  -9   1  -4    1.43    0.39
  -9   1  -4    1.10    0.24
  -9   1  -4    1.06    0.45
  -9   1  -3    1.09    0.30
  -9   1  -3    1.18    0.37
  -9   1  -3    0.61    0.43
  -9   1  -2    8.92    0.80
  -9   1  -2    9.81    0.87
  -9   1  -1   47.25    2.78
  -9   1  -1   46.25    2.80
  -9   1  -1   40.37    2.98
  -9   1   0    1.09    0.40
  -9   1   0    0.94    0.38
  -9   1   1   13.32    1.06
  -9   1   1   13.08    1.05
  -9   1   2    9.30    0.75
  -9   1   3   17.37    1.14
  -9   1   3   18.51    1.13
  -9   2  -6    3.72    0.35
  -9   2  -4    4.82    0.43
  -9   2  -3    3.04    0.39
  -9   2  -3    2.75    0.51
  -9   2  -2  111.97    6.11
  -9   2  -2   99.15    6.29
  -9   2  -1    0.68    0.27
  -9   2  -1    0.89    0.42
  -9   2   0   65.09    3.99
  -9   2   1    8.30    0.78
  -9   2   1    9.86    0.83
  -9   2   2    2.80    0.38
  -9   2   2    2.25    0.35
  -9   2   3    0.29    0.15
  -9   3  -4    1.06    0.21
  -9   3  -3    0.38    0.17
  -9   3  -3    0.53    0.22
  -9   3  -2   -0.09    0.23
  -9   3  -2   -0.04    0.17
  -9   3  -1   35.93    2.18
  -9   3   1    2.11    0.34
  -9   3   1    2.22    0.32
  -9   3   2    0.51    0.17
  -9   4  -2    9.87    0.65
  -9   4  -1    5.60    0.43
  -8  -8  -5    2.22    0.27
  -8  -7  -8    1.42    0.28
  -8  -7  -7   12.20    1.11
  -8  -7  -7   15.93    1.10
  -8  -7  -6   42.60    3.05
  -8  -7  -6   58.42    3.11
  -8  -7  -5    0.21    0.27
  -8  -7  -5   -0.53    0.96
  -8  -7  -4    1.74    0.41
  -8  -7  -2    0.98    0.27
  -8  -7  -2    0.87    0.24
  -8  -6  -9    0.89    0.32
  -8  -6  -9    0.92    0.27
  -8  -6  -8    2.96    0.33
  -8  -6  -8    4.74    0.57
  -8  -6  -7   23.61    1.69
  -8  -6  -7   31.37    2.08
  -8  -6  -7   33.44    1.98
  -8  -6  -7   21.04    2.36
  -8  -6  -6    5.88    0.82
  -8  -6  -6    5.02    0.60
  -8  -6  -6    6.51    0.77
  -8  -6  -6    6.25    1.52
  -8  -6  -5   39.28    2.57
  -8  -6  -5   36.59    2.75
  -8  -6  -5   37.53    3.80
  -8  -6  -4   14.82    1.19
  -8  -6  -4   18.82    1.41
  -8  -6  -4   14.24    2.35
  -8  -6  -3    1.03    0.43
  -8  -6  -3    0.81    0.43
  -8  -6  -3    0.19    1.22
  -8  -6  -2    6.45    0.71
  -8  -6  -2    5.38    0.66
  -8  -6  -1    0.14    0.27
  -8  -6   0    1.60    0.29
  -8  -5 -10   38.47    2.36
  -8  -5  -9  107.09    5.34
  -8  -5  -9   81.88    4.94
  -8  -5  -8   15.05    1.21
  -8  -5  -8   13.04    1.59
  -8  -5  -8   13.09    1.05
  -8  -5  -7    0.98    1.00
  -8  -5  -7    0.65    0.45
  -8  -5  -7    0.48    0.75
  -8  -5  -7    0.88    0.37
  -8  -5  -7    1.51    0.59
  -8  -5  -6   -0.19    1.30
  -8  -5  -6   -0.06    0.47
  -8  -5  -6   -0.59    0.76
  -8  -5  -6    0.39    0.41
  -8  -5  -6    0.37    0.50
  -8  -5  -5  130.83    9.72
  -8  -5  -5  151.60    8.42
  -8  -5  -5  125.09    8.68
  -8  -5  -5  138.71    8.21
  -8  -5  -5  160.21    8.57
  -8  -5  -4  134.96   10.56
  -8  -5  -4  170.01    9.05
  -8  -5  -4  149.96    9.07
  -8  -5  -4  161.67    9.26
  -8  -5  -3   14.17    1.28
  -8  -5  -3   16.03    1.43
  -8  -5  -3   17.75    1.31
  -8  -5  -3   17.77    1.48
  -8  -5  -2   17.31    1.42
  -8  -5  -2   14.82    2.57
  -8  -5  -2   19.48    1.57
  -8  -5  -2   20.77    1.48
  -8  -5  -2   23.01    1.66
  -8  -5  -1    9.95    1.79
  -8  -5  -1   10.79    0.98
  -8  -5  -1   13.23    1.12
  -8  -5  -1   11.82    1.07
  -8  -5   0   30.95    1.97
  -8  -5   0   28.82    1.98
  -8  -5   1    0.35    0.25
  -8  -4 -10  128.28    5.72
  -8  -4 -10   88.60    5.39
  -8  -4  -9   66.04    3.67
  -8  -4  -9   51.66    4.11
  -8  -4  -8  249.19   13.93
  -8  -4  -7   52.10    4.41
  -8  -4  -7   62.00    3.77
  -8  -4  -7   61.34    3.67
  -8  -4  -7   50.15    4.36
  -8  -4  -6    8.20    1.92
  -8  -4  -6   12.49    1.22
  -8  -4  -6   11.86    1.11
  -8  -4  -6    9.21    1.60
  -8  -4  -5   89.53    7.52
  -8  -4  -5  108.19    6.23
  -8  -4  -5  103.05    6.09
  -8  -4  -5   95.39    6.85
  -8  -4  -4   76.77    7.03
  -8  -4  -4  101.88    5.83
  -8  -4  -4   95.02    5.59
  -8  -4  -4   80.03    6.10
  -8  -4  -4   94.41    5.69
  -8  -4  -3    2.18    0.64
  -8  -4  -3    3.29    0.61
  -8  -4  -3    2.55    0.61
  -8  -4  -2    4.67    1.93
  -8  -4  -2    6.71    0.89
  -8  -4  -2    6.93    0.87
  -8  -4  -2    6.77    0.89
  -8  -4  -1  127.44   10.28
  -8  -4  -1  140.20    9.08
  -8  -4  -1  184.10    9.22
  -8  -4  -1  167.18    9.22
  -8  -4   0  160.03   10.68
  -8  -4   0  191.80    9.85
  -8  -4   0  185.59    9.87
  -8  -4   0  149.64    9.72
  -8  -4   1  296.88   13.51
  -8  -4   1  277.73   13.45
  -8  -4   2    9.30    0.81
  -8  -3 -10    3.88    0.42
  -8  -3  -9   18.31    1.88
  -8  -3  -9   20.02    1.48
  -8  -3  -8    1.71    0.79
  -8  -3  -8    1.28    0.45
  -8  -3  -7    0.39    0.93
  -8  -3  -7   -0.15    0.85
  -8  -3  -7    0.10    0.40
  -8  -3  -7   -0.09    0.30
  -8  -3  -6   19.62    2.49
  -8  -3  -6   17.55    2.22
  -8  -3  -6   13.19    1.24
  -8  -3  -6   18.36    1.46
  -8  -3  -5    2.27    1.53
  -8  -3  -5    2.22    0.46
  -8  -3  -5    3.23    0.68
  -8  -3  -5    2.63    0.44
  -8  -3  -5    2.49    1.08
  -8  -3  -4   24.51    3.48
  -8  -3  -4   28.90    2.19
  -8  -3  -4   31.32    1.97
  -8  -3  -4   27.71    2.86
  -8  -3  -3    3.90    0.66
  -8  -3  -3    3.08    1.65
  -8  -3  -3    3.46    0.67
  -8  -3  -2    4.94    2.03
  -8  -3  -2    3.00    0.61
  -8  -3  -2    3.11    0.63
  -8  -3  -2    2.66    0.59
  -8  -3  -1   -0.32    0.42
  -8  -3  -1   -0.13    0.35
  -8  -3  -1    0.24    0.41
  -8  -3  -1    0.23    1.46
  -8  -3   0   78.98    4.38
  -8  -3   0   68.99    4.13
  -8  -3   0   60.47    4.20
  -8  -3   0   65.20    5.34
  -8  -3   1    0.82    0.40
  -8  -3   1    0.32    0.30
  -8  -3   1    0.46    0.41
  -8  -3   2   25.75    1.77
  -8  -3   2   30.07    1.94
  -8  -3   3    5.38    0.59
  -8  -2 -10    9.08    0.67
  -8  -2 -10    7.61    0.60
  -8  -2  -9    6.41    1.12
  -8  -2  -9    4.52    0.81
  -8  -2  -9    6.52    0.66
  -8  -2  -9    3.31    0.48
  -8  -2  -8    0.23    0.84
  -8  -2  -8   -0.22    0.70
  -8  -2  -8    0.46    0.41
  -8  -2  -7    1.27    0.95
  -8  -2  -7    1.21    0.38
  -8  -2  -7    0.97    0.48
  -8  -2  -7    1.12    0.82
  -8  -2  -6   -0.17    1.02
  -8  -2  -6    0.63    0.92
  -8  -2  -6    0.63    0.92
  -8  -2  -6    0.39    0.36
  -8  -2  -5    8.67    0.90
  -8  -2  -5   12.34    2.23
  -8  -2  -4    1.51    1.02
  -8  -2  -4    2.36    1.65
  -8  -2  -4    2.09    0.60
  -8  -2  -4    2.30    0.50
  -8  -2  -4    1.64    0.41
  -8  -2  -3  128.16   10.12
  -8  -2  -3  158.31    8.72
  -8  -2  -3  145.16    8.48
  -8  -2  -2  105.24    6.06
  -8  -2  -2  101.65    5.84
  -8  -2  -2   93.37    5.89
  -8  -2  -1    5.96    1.85
  -8  -2  -1    6.77    0.70
  -8  -2  -1    5.77    0.80
  -8  -2  -1    5.26    0.74
  -8  -2   0    1.42    1.30
  -8  -2   0    0.70    0.42
  -8  -2   0    0.42    0.37
  -8  -2   1    2.40    0.55
  -8  -2   1    3.44    0.71
  -8  -2   1    2.86    0.51
  -8  -2   1    1.82    1.14
  -8  -2   2    3.12    0.46
  -8  -2   2    3.48    0.56
  -8  -2   3   11.77    0.95
  -8  -2   4   -0.05    0.24
  -8  -1 -10   22.35    1.28
  -8  -1 -10   18.93    1.22
  -8  -1  -9   42.83    2.75
  -8  -1  -9   39.96    3.22
  -8  -1  -8    0.67    0.81
  -8  -1  -7   -0.12    0.72
  -8  -1  -7   -0.65    0.94
  -8  -1  -7    0.11    0.48
  -8  -1  -7    0.18    0.29
  -8  -1  -6   70.47    4.89
  -8  -1  -6   60.34    4.71
  -8  -1  -6   61.51    3.89
  -8  -1  -6   72.51    4.11
  -8  -1  -5   14.27    2.18
  -8  -1  -5   12.98    1.90
  -8  -1  -5   13.38    1.29
  -8  -1  -5   11.61    1.09
  -8  -1  -5   13.74    1.01
  -8  -1  -5    7.72    1.52
  -8  -1  -4    0.22    1.29
  -8  -1  -4   -0.13    0.46
  -8  -1  -4   -0.23    0.32
  -8  -1  -4   -0.04    0.26
  -8  -1  -3   41.06    4.23
  -8  -1  -3   35.48    2.49
  -8  -1  -3   40.24    2.71
  -8  -1  -3   39.46    2.62
  -8  -1  -2   37.03    2.54
  -8  -1  -2   38.51    2.64
  -8  -1  -2   37.18    2.50
  -8  -1  -1   57.86    5.26
  -8  -1  -1   58.41    3.77
  -8  -1  -1   58.07    3.70
  -8  -1  -1   62.20    3.73
  -8  -1   0    8.36    2.02
  -8  -1   0    9.77    0.91
  -8  -1   0    8.41    0.91
  -8  -1   1   16.87    2.26
  -8  -1   2    5.86    0.83
  -8  -1   2    5.17    0.71
  -8  -1   2    4.77    0.67
  -8  -1   3    7.57    0.85
  -8  -1   3    8.48    0.81
  -8  -1   3    8.09    0.75
  -8  -1   4   37.73    2.30
  -8  -1   4   36.17    2.32
  -8   0  -9   32.38    2.24
  -8   0  -9   47.58    2.38
  -8   0  -8   12.79    1.55
  -8   0  -7   47.10    2.85
  -8   0  -7   37.33    3.41
  -8   0  -6  141.23    8.50
  -8   0  -6  129.07    9.23
  -8   0  -5    0.14    0.91
  -8   0  -5    0.81    1.09
  -8   0  -5    0.10    0.24
  -8   0  -5    0.24    0.29
  -8   0  -5    0.36    0.46
  -8   0  -4    6.40    1.72
  -8   0  -4    3.47    1.12
  -8   0  -4    4.81    0.62
  -8   0  -4    4.12    0.57
  -8   0  -4    3.66    0.57
  -8   0  -4    4.63    0.76
  -8   0  -3    1.06    1.29
  -8   0  -3    1.90    0.88
  -8   0  -3    1.49    0.45
  -8   0  -3    1.04    0.41
  -8   0  -3    0.18    0.58
  -8   0  -2   41.37    2.82
  -8   0  -2   39.66    2.74
  -8   0  -2   39.94    2.80
  -8   0  -1    4.21    0.63
  -8   0  -1    3.85    0.68
  -8   0  -1    3.96    0.65
  -8   0   0   20.27    1.51
  -8   0   0   21.42    1.54
  -8   0   1   43.80    3.51
  -8   0   1   25.29    2.15
  -8   0   2   49.07    3.30
  -8   0   2   51.71    3.26
  -8   0   2   49.28    3.21
  -8   0   3   11.05    1.08
  -8   0   3   12.67    1.09
  -8   0   3   12.76    1.06
  -8   0   4    1.35    0.35
  -8   1  -9    5.14    0.40
  -8   1  -8    6.49    0.62
  -8   1  -7   31.59    2.19
  -8   1  -7   37.57    2.27
  -8   1  -7   33.23    2.79
  -8   1  -6   11.54    0.99
  -8   1  -6   10.13    0.92
  -8   1  -6   11.67    1.62
  -8   1  -5    0.92    0.93
  -8   1  -5    0.81    0.28
  -8   1  -5    1.62    0.48
  -8   1  -5    0.79    0.32
  -8   1  -4   14.35    1.90
  -8   1  -4   17.44    1.35
  -8   1  -4   14.90    1.25
  -8   1  -4   15.81    1.28
  -8   1  -4   17.60    1.40
  -8   1  -3   39.68    2.61
  -8   1  -3   38.31    2.56
  -8   1  -3   36.64    2.53
  -8   1  -2    0.55    0.46
  -8   1  -2    0.61    1.35
  -8   1  -2    0.40    0.36
  -8   1  -2    0.28    0.44
  -8   1  -1    3.58    0.65
  -8   1  -1    3.02    0.58
  -8   1  -1    1.97    0.78
  -8   1   0    0.19    0.34
  -8   1   0    0.41    0.40
  -8   1   0    0.36    0.55
  -8   1   1   39.06    2.52
  -8   1   1   40.66    2.55
  -8   1   1   32.45    2.70
  -8   1   2   84.39    5.40
  -8   1   2  109.15    5.69
  -8   1   3   11.28    1.03
  -8   1   4  159.20    8.83
  -8   1   4  153.48    8.84
  -8   1   5    8.72    0.69
  -8   2  -7    0.17    0.24
  -8   2  -6   -0.30    0.68
  -8   2  -5    1.29    0.47
  -8   2  -5    1.72    0.93
  -8   2  -5    1.55    0.32
  -8   2  -5    1.48    0.37
  -8   2  -4   -0.15    0.45
  -8   2  -4   -0.04    0.30
  -8   2  -4    0.14    0.33
  -8   2  -3   31.22    2.11
  -8   2  -3   35.64    2.23
  -8   2  -2  112.00    6.39
  -8   2  -2  126.74    6.52
  -8   2  -1  113.92    6.76
  -8   2  -1  116.89    6.82
  -8   2   0   21.50    1.93
  -8   2   1    0.09    0.32
  -8   2   1    0.30    0.46
  -8   2   2    0.15    0.27
  -8   2   2    0.47    0.39
  -8   2   3    5.78    0.71
  -8   2   3    4.87    0.69
  -8   2   4   51.61    3.16
  -8   2   4   53.50    3.18
  -8   3  -7    5.54    0.44
  -8   3  -5    4.93    0.48
  -8   3  -5    5.92    0.58
  -8   3  -4    5.00    0.70
  -8   3  -4    5.55    0.66
  -8   3  -4    4.91    0.57
  -8   3  -4    5.06    0.64
  -8   3  -3   44.47    3.32
  -8   3  -3   55.07    3.23
  -8   3  -3   51.97    3.24
  -8   3  -2    6.35    0.92
  -8   3  -2    7.92    0.82
  -8   3  -2    6.98    0.81
  -8   3  -2    6.74    0.83
  -8   3  -1  408.74   25.63
  -8   3  -1  471.11   25.44
  -8   3  -1  452.53   25.44
  -8   3  -1  500.10   25.54
  -8   3   0   57.54    3.67
  -8   3   0   62.70    3.77
  -8   3   1  110.14    6.56
  -8   3   1  112.82    6.55
  -8   3   1  118.65    6.84
  -8   3   2   33.36    2.19
  -8   3   2   36.14    2.42
  -8   3   3    7.60    0.76
  -8   3   3    7.88    0.80
  -8   3   4    4.33    0.53
  -8   4  -5    7.92    0.60
  -8   4  -4    0.98    0.25
  -8   4  -4    0.98    0.30
  -8   4  -3  126.53    7.01
  -8   4  -3  119.28    6.95
  -8   4  -3  123.72    7.09
  -8   4  -3  124.33    7.07
  -8   4  -2  120.40    6.96
  -8   4  -2  121.40    7.17
  -8   4  -2  127.19    7.10
  -8   4  -1    3.44    0.49
  -8   4  -1    3.68    0.52
  -8   4  -1    3.29    0.62
  -8   4  -1    2.93    0.54
  -8   4   0    4.39    0.55
  -8   4   0    6.23    0.77
  -8   4   1   40.15    2.53
  -8   4   2    1.51    0.30
  -8   4   2    1.86    0.41
  -8   4   2    1.33    0.41
  -8   4   3   52.98    3.14
  -8   5  -3    2.58    0.35
  -8   5  -3    2.26    0.30
  -8   5  -2    0.49    0.25
  -8   5  -2    0.15    0.21
  -8   5  -1   20.89    1.41
  -8   5   0    0.92    0.32
  -8   5   1    0.02    0.19
  -8   6  -1    6.34    0.45
  -8   6   0   -0.02    0.10
  -7  -9  -6    0.16    0.17
  -7  -9  -5    0.50    0.17
  -7  -8  -9    0.19    0.18
  -7  -8  -8    0.15    0.25
  -7  -8  -7   19.37    1.41
  -7  -8  -6   10.24    0.91
  -7  -8  -6    6.80    1.21
  -7  -8  -5    0.69    0.39
  -7  -8  -5    0.47    0.75
  -7  -8  -4    4.40    0.70
  -7  -8  -4    2.68    1.02
  -7  -8  -3    3.47    0.50
  -7  -8  -3    2.47    0.45
  -7  -8  -2   40.63    2.26
  -7  -8  -2   32.48    2.23
  -7  -8  -1    0.88    0.18
  -7  -8  -1    0.80    0.22
  -7  -7 -10    3.17    0.41
  -7  -7 -10    2.57    0.39
  -7  -7  -9   -0.08    0.36
  -7  -7  -9    0.15    0.39
  -7  -7  -8    1.48    0.50
  -7  -7  -8    1.63    0.69
  -7  -7  -8    1.22    0.55
  -7  -7  -7    0.28    0.43
  -7  -7  -6    0.79    0.30
  -7  -7  -6    1.28    0.62
  -7  -7  -6    1.24    0.52
  -7  -7  -6    1.56    1.03
  -7  -7  -5   -0.17    0.29
  -7  -7  -5   -0.39    0.51
  -7  -7  -5   -0.30    0.50
  -7  -7  -5    0.51    1.05
  -7  -7  -4   32.33    2.66
  -7  -7  -4   45.10    2.74
  -7  -7  -3   16.17    1.31
  -7  -7  -3    8.03    1.85
  -7  -7  -2   27.67    1.94
  -7  -7  -2   25.06    1.89
  -7  -7  -1    8.89    0.85
  -7  -7  -1    8.12    0.84
  -7  -7   0   20.51    1.34
  -7  -7   0   18.02    1.35
  -7  -6 -11    0.12    0.17
  -7  -6 -10    0.50    0.34
  -7  -6 -10    0.17    0.36
  -7  -6  -9    2.68    0.98
  -7  -6  -9    2.10    0.62
  -7  -6  -8   31.58    3.18
  -7  -6  -8   34.79    2.31
  -7  -6  -7    9.86    1.68
  -7  -6  -7   10.80    0.97
  -7  -6  -6    1.10    1.09
  -7  -6  -6    2.30    1.03
  -7  -6  -6    3.29    0.87
  -7  -6  -6    1.68    0.46
  -7  -6  -5    8.67    0.93
  -7  -6  -5    5.74    1.75
  -7  -6  -4   -0.40    0.43
  -7  -6  -4   -0.44    0.58
  -7  -6  -4   -0.21    1.35
  -7  -6  -3   23.16    1.68
  -7  -6  -3   20.95    1.87
  -7  -6  -3   19.00    2.83
  -7  -6  -2    6.44    1.69
  -7  -6  -1   14.55    1.22
  -7  -6  -1   17.34    1.43
  -7  -6   0    0.04    0.30
  -7  -6   0    0.24    0.38
  -7  -6   1   43.99    3.06
  -7  -6   1   64.83    3.24
  -7  -5 -11    0.66    0.23
  -7  -5 -11    0.72    0.28
  -7  -5 -10   11.16    0.98
  -7  -5 -10    9.62    1.00
  -7  -5 -10    7.04    0.62
  -7  -5 -10    7.20    1.20
  -7  -5  -9   37.16    2.58
  -7  -5  -9   35.20    2.26
  -7  -5  -9   30.88    3.05
  -7  -5  -8    5.36    0.92
  -7  -5  -8    5.49    1.46
  -7  -5  -8    4.43    0.64
  -7  -5  -7    1.75    1.46
  -7  -5  -7    3.04    0.81
  -7  -5  -7    2.73    1.32
  -7  -5  -7    2.67    0.57
  -7  -5  -6   37.81    2.75
  -7  -5  -6   32.91    3.43
  -7  -5  -6   37.96    2.48
  -7  -5  -5   16.09    2.62
  -7  -5  -5   21.03    1.88
  -7  -5  -5   15.39    2.26
  -7  -5  -5   20.60    1.64
  -7  -5  -4   12.81    2.48
  -7  -5  -4   16.72    2.24
  -7  -5  -4   23.11    1.78
  -7  -5  -4   27.26    2.19
  -7  -5  -4   25.07    2.05
  -7  -5  -3  135.37    8.34
  -7  -5  -3  126.75    8.05
  -7  -5  -3  122.25    8.28
  -7  -5  -2    4.00    1.68
  -7  -5  -2    3.02    0.76
  -7  -5  -2    2.69    0.64
  -7  -5  -2    3.75    0.66
  -7  -5  -2    6.22    0.80
  -7  -5  -1    5.70    0.89
  -7  -5  -1    4.78    0.77
  -7  -5  -1    4.53    0.70
  -7  -5   0   37.26    2.47
  -7  -5   0   36.39    2.55
  -7  -5   0   34.32    2.53
  -7  -5   1   35.82    2.40
  -7  -5   1   36.89    2.45
  -7  -5   1   32.76    2.44
  -7  -5   2    0.91    0.35
  -7  -5   2    0.72    0.34
  -7  -5   3   -0.14    0.25
  -7  -4 -11    0.32    0.25
  -7  -4 -10   18.19    1.46
  -7  -4 -10   15.32    1.77
  -7  -4 -10   17.71    1.27
  -7  -4  -9    5.61    0.90
  -7  -4  -9    5.02    1.26
  -7  -4  -9    5.41    0.68
  -7  -4  -9    4.19    0.60
  -7  -4  -8    0.90    0.65
  -7  -4  -8    0.59    0.45
  -7  -4  -8    0.26    0.35
  -7  -4  -8    0.19    1.02
  -7  -4  -7   13.17    2.25
  -7  -4  -7   11.64    1.17
  -7  -4  -7   11.94    1.40
  -7  -4  -6    5.81    1.64
  -7  -4  -6    5.43    0.82
  -7  -4  -6    8.49    0.97
  -7  -4  -6    6.99    1.74
  -7  -4  -6    9.15    1.19
  -7  -4  -5    5.20    0.95
  -7  -4  -5    3.76    0.63
  -7  -4  -5    3.90    0.73
  -7  -4  -5    3.86    1.35
  -7  -4  -4  120.64    9.35
  -7  -4  -4  173.18    8.94
  -7  -4  -4  101.85    9.49
  -7  -4  -4  129.68   15.67
  -7  -4  -4  156.89    8.59
  -7  -4  -3   14.19    1.95
  -7  -4  -3   16.48    1.59
  -7  -4  -3   15.84    2.69
  -7  -4  -3   14.70    1.39
  -7  -4  -2   10.53    1.44
  -7  -4  -2   17.86    2.62
  -7  -4  -2    2.36    0.75
  -7  -4  -2    2.33    0.63
  -7  -4  -2    5.07    0.83
  -7  -4  -2   20.10    5.83
  -7  -4  -2    4.23    1.42
  -7  -4  -1   12.33    1.37
  -7  -4  -1   11.27    1.19
  -7  -4   0   14.45    2.66
  -7  -4   0   13.89    1.18
  -7  -4   0   15.29    1.40
  -7  -4   0   14.78    1.48
  -7  -4   0   11.79    1.33
  -7  -4   1   15.75    1.29
  -7  -4   1   18.08    1.50
  -7  -4   1   15.40    1.45
  -7  -4   1   17.44    1.53
  -7  -4   2   51.21    3.44
  -7  -4   2   60.31    3.67
  -7  -4   2   62.52    3.67
  -7  -4   2   61.49    3.72
  -7  -4   2   54.44    3.62
  -7  -4   3    8.20    0.87
  -7  -4   3    7.63    0.83
  -7  -4   4    0.90    0.35
  -7  -3 -11   30.06    1.83
  -7  -3 -10    1.79    0.72
  -7  -3 -10    1.08    0.34
  -7  -3 -10    1.61    0.41
  -7  -3  -9   21.52    2.47
  -7  -3  -9   23.25    1.76
  -7  -3  -8   39.40    2.75
  -7  -3  -8   36.36    3.67
  -7  -3  -7    3.61    1.33
  -7  -3  -7    2.27    0.75
  -7  -3  -7    2.02    1.28
  -7  -3  -7    1.12    0.97
  -7  -3  -6    7.92    2.17
  -7  -3  -6   10.81    1.18
  -7  -3  -6   16.07    1.40
  -7  -3  -6   14.47    1.52
  -7  -3  -5   -0.22    1.28
  -7  -3  -5    0.09    0.55
  -7  -3  -5    4.52    2.27
  -7  -3  -5    0.41    0.36
  -7  -3  -5   -0.27    0.47
  -7  -3  -5    3.13    2.87
  -7  -3  -4   15.91    2.34
  -7  -3  -4   16.30    1.42
  -7  -3  -4   18.51    1.57
  -7  -3  -4   18.65    1.74
  -7  -3  -3   57.94    4.63
  -7  -3  -3   49.85    3.44
  -7  -3  -3   47.99    9.10
  -7  -3  -3   67.12    3.95
  -7  -3  -2    4.91    0.86
  -7  -3  -2    4.52    1.16
  -7  -3  -2    5.74    1.81
  -7  -3  -2    6.10    3.59
  -7  -3  -1   21.20    1.76
  -7  -3  -1   13.39    2.94
  -7  -3  -1   18.26    2.93
  -7  -3  -1   20.76    1.81
  -7  -3  -1   18.45    1.61
  -7  -3   0   12.09    1.30
  -7  -3   0   18.36    1.55
  -7  -3   0   15.74    1.61
  -7  -3   0   10.61    1.26
  -7  -3   1    3.71    1.68
  -7  -3   1    3.24    0.73
  -7  -3   1    3.96    0.65
  -7  -3   1    2.67    0.62
  -7  -3   1    3.24    0.73
  -7  -3   1    2.92    0.64
  -7  -3   2   40.49    2.69
  -7  -3   2   46.91    2.91
  -7  -3   2   39.23    2.81
  -7  -3   2   37.40    2.76
  -7  -3   3   11.05    1.10
  -7  -3   3   10.36    1.09
  -7  -3   3   10.51    0.98
  -7  -3   4   -0.04    0.33
  -7  -3   4    0.38    0.35
  -7  -2 -11    2.71    0.35
  -7  -2 -10   35.67    2.21
  -7  -2 -10   32.48    2.49
  -7  -2  -9    0.09    0.31
  -7  -2  -9   -0.49    0.77
  -7  -2  -8    2.12    1.10
  -7  -2  -8    2.37    0.96
  -7  -2  -8    1.71    0.52
  -7  -2  -7   44.30    4.25
  -7  -2  -7   51.15    3.49
  -7  -2  -7   52.59    5.21
  -7  -2  -7   56.17    4.93
  -7  -2  -6    7.10    1.86
  -7  -2  -6    5.65    1.68
  -7  -2  -6    5.43    1.88
  -7  -2  -6    9.44    0.99
  -7  -2  -6    6.64    1.64
  -7  -2  -6    8.17    1.08
  -7  -2  -5   19.18    2.98
  -7  -2  -5   23.58    1.95
  -7  -2  -5   20.86    3.10
  -7  -2  -5   21.32    1.72
  -7  -2  -5   16.89    5.01
  -7  -2  -4   52.60    4.85
  -7  -2  -4   68.41    4.04
  -7  -2  -4   47.91    5.29
  -7  -2  -4   57.40    3.72
  -7  -2  -4   58.46    3.63
  -7  -2  -4   43.42    8.30
  -7  -2  -3   17.83    2.54
  -7  -2  -3   22.36    1.94
  -7  -2  -3   22.89    3.62
  -7  -2  -3   22.10    1.72
  -7  -2  -3   25.24    1.76
  -7  -2  -3   28.51    2.04
  -7  -2  -3   12.98    4.80
  -7  -2  -2    1.18    1.05
  -7  -2  -2    1.52    0.44
  -7  -2  -2    1.71    0.60
  -7  -2  -2    1.56    0.37
  -7  -2  -2    1.28    0.42
  -7  -2  -2    1.91    0.57
  -7  -2  -1   30.37    2.38
  -7  -2  -1   24.48    3.78
  -7  -2  -1   31.73    2.46
  -7  -2  -1   29.79    6.90
  -7  -2  -1   35.63    4.23
  -7  -2  -1   34.03    2.24
  -7  -2  -1   32.64    2.40
  -7  -2  -1   33.45    2.25
  -7  -2   0    1.39    0.52
  -7  -2   0    1.91    1.70
  -7  -2   0    2.40    0.64
  -7  -2   0    4.08    2.80
  -7  -2   0    4.73    1.54
  -7  -2   0    1.97    0.58
  -7  -2   0    1.82    0.44
  -7  -2   1    6.15    0.89
  -7  -2   1    5.54    1.82
  -7  -2   1    7.41    0.89
  -7  -2   1    8.20    1.00
  -7  -2   2    7.11    0.88
  -7  -2   2    7.30    1.00
  -7  -2   2    4.79    0.74
  -7  -2   2    5.49    0.80
  -7  -2   2    5.81    0.85
  -7  -2   2    5.93    1.46
  -7  -2   2    5.60    0.76
  -7  -2   3   25.07    1.98
  -7  -2   3   29.69    1.98
  -7  -2   3   24.95    1.81
  -7  -2   4   75.71    4.57
  -7  -2   4   74.77    4.59
  -7  -2   4   72.78    4.46
  -7  -2   5    8.10    0.78
  -7  -2   5    6.97    0.75
  -7  -1 -11   13.03    0.89
  -7  -1 -10   64.60    3.78
  -7  -1 -10   62.85    4.37
  -7  -1  -9   23.64    2.23
  -7  -1  -9   29.78    1.94
  -7  -1  -9   27.46    1.95
  -7  -1  -8    8.56    1.45
  -7  -1  -8   10.71    1.94
  -7  -1  -8   12.65    1.09
  -7  -1  -8    9.14    1.01
  -7  -1  -7    7.25    1.55
  -7  -1  -7    7.77    1.70
  -7  -1  -6    9.69    1.86
  -7  -1  -6   12.74    2.08
  -7  -1  -6   11.93    2.18
  -7  -1  -6   11.56    2.27
  -7  -1  -5  103.21    8.38
  -7  -1  -5   99.66    8.45
  -7  -1  -5  111.19    7.71
  -7  -1  -5  109.61    7.96
  -7  -1  -5  119.35    8.48
  -7  -1  -4   29.53    3.60
  -7  -1  -4   27.37    3.04
  -7  -1  -4   28.03    1.95
  -7  -1  -4   26.63    3.54
  -7  -1  -4   28.52    1.94
  -7  -1  -4   23.39    1.95
  -7  -1  -4   24.29    5.92
  -7  -1  -3    1.65    0.94
  -7  -1  -3    1.69    1.16
  -7  -1  -3    1.85    0.46
  -7  -1  -3    1.07    1.78
  -7  -1  -3    1.84    0.43
  -7  -1  -3    1.26    0.41
  -7  -1  -3    1.96    0.59
  -7  -1  -3    0.99    2.52
  -7  -1  -2   13.33    2.06
  -7  -1  -2    9.01    0.95
  -7  -1  -2   13.85    1.29
  -7  -1  -2   13.02    1.15
  -7  -1  -2   12.08    4.94
  -7  -1  -2   10.50    2.43
  -7  -1  -1   93.82    8.11
  -7  -1  -1   73.81   11.09
  -7  -1  -1   98.15    5.80
  -7  -1  -1  103.18    5.95
  -7  -1  -1   96.06    5.78
  -7  -1  -1   92.69    5.83
  -7  -1  -1   91.98    7.69
  -7  -1   0   31.57    2.14
  -7  -1   0   34.33    2.26
  -7  -1   0   28.02    2.08
  -7  -1   0   28.52    2.20
  -7  -1   0   23.47    3.42
  -7  -1   1    2.63    2.24
  -7  -1   1    2.93    0.62
  -7  -1   1    4.36    0.63
  -7  -1   1    5.56    1.73
  -7  -1   1    5.00    0.75
  -7  -1   2   27.57    2.21
  -7  -1   2   26.78    3.13
  -7  -1   3   14.27    1.37
  -7  -1   3   16.71    1.38
  -7  -1   3   16.01    1.41
  -7  -1   3   17.50    1.55
  -7  -1   4   94.39    5.96
  -7  -1   4  101.85    5.89
  -7  -1   4  103.03    5.96
  -7  -1   4  101.75    6.04
  -7  -1   5   81.34    4.91
  -7  -1   5   82.93    4.85
  -7   0 -10   13.49    0.95
  -7   0  -9    0.95    0.35
  -7   0  -9    0.11    0.83
  -7   0  -8    8.40    1.26
  -7   0  -7    3.91    0.70
  -7   0  -7    4.44    1.23
  -7   0  -6   28.44    3.68
  -7   0  -6   39.39    3.30
  -7   0  -6   32.25    3.23
  -7   0  -6   32.98    3.89
  -7   0  -6   34.31    2.47
  -7   0  -5    4.46    1.45
  -7   0  -5    2.36    0.59
  -7   0  -5    1.83    0.44
  -7   0  -5    2.77    1.12
  -7   0  -5    0.93    1.25
  -7   0  -5    2.10    1.14
  -7   0  -5    1.73    1.26
  -7   0  -5    2.82    1.18
  -7   0  -5    2.29    0.48
  -7   0  -5    2.18    2.14
  -7   0  -4    6.46    0.76
  -7   0  -4    4.02    1.31
  -7   0  -4    6.26    1.58
  -7   0  -4    5.84    1.48
  -7   0  -4    5.81    1.60
  -7   0  -4    4.03    1.69
  -7   0  -4    6.12    0.78
  -7   0  -4    2.52    2.78
  -7   0  -3   -0.16    1.05
  -7   0  -3    1.73    1.12
  -7   0  -3    1.93    1.67
  -7   0  -3    1.51    0.47
  -7   0  -3    1.10    0.52
  -7   0  -3    1.81    2.49
  -7   0  -3    1.33    0.49
  -7   0  -2    0.36    0.40
  -7   0  -2    1.00    1.58
  -7   0  -2    0.93    2.17
  -7   0  -2    0.66    0.91
  -7   0  -2    0.66    0.84
  -7   0  -2    1.05    0.51
  -7   0  -2    0.09    0.28
  -7   0  -2    0.33    0.35
  -7   0  -1    0.90    0.44
  -7   0  -1    1.13    0.48
  -7   0  -1    1.32    0.50
  -7   0  -1    1.33    0.52
  -7   0  -1    0.33    0.90
  -7   0   0   28.38    1.99
  -7   0   0   23.99    1.93
  -7   0   0   28.06    1.95
  -7   0   0   23.74    1.87
  -7   0   0   21.43    5.56
  -7   0   0   24.74    3.41
  -7   0   0   27.50    3.47
  -7   0   1   16.55    2.64
  -7   0   1   12.60    1.21
  -7   0   1   14.94    1.29
  -7   0   1   17.42    2.57
  -7   0   2    2.60    0.53
  -7   0   2    1.77    0.57
  -7   0   3   -0.12    0.51
  -7   0   3    0.42    0.50
  -7   0   3    0.68    0.51
  -7   0   4  168.68    9.65
  -7   0   4  167.31    9.73
  -7   0   5    5.10    0.67
  -7   0   5    5.25    0.70
  -7   0   6   -0.12    0.30
  -7   1 -10    8.48    0.58
  -7   1  -9    0.41    0.67
  -7   1  -9    0.55    0.26
  -7   1  -9    0.59    0.28
  -7   1  -8    1.33    0.91
  -7   1  -8    1.97    0.47
  -7   1  -7    1.00    0.86
  -7   1  -7    0.91    1.06
  -7   1  -7    1.65    0.49
  -7   1  -6    3.56    1.27
  -7   1  -6    5.71    0.76
  -7   1  -5    0.28    0.78
  -7   1  -5    0.37    0.42
  -7   1  -5    0.27    0.34
  -7   1  -5   -0.18    1.22
  -7   1  -4    1.94    1.27
  -7   1  -4    1.00    1.20
  -7   1  -4    0.28    0.71
  -7   1  -4    0.76    1.77
  -7   1  -4    0.54    0.40
  -7   1  -3   42.89    4.13
  -7   1  -3   66.37    5.15
  -7   1  -3   56.72    5.25
  -7   1  -3   58.84    8.26
  -7   1  -3   52.66    3.48
  -7   1  -2    6.07    1.35
  -7   1  -2    8.83    2.08
  -7   1  -2    6.29    0.83
  -7   1  -2    6.48    0.87
  -7   1  -2    5.70    1.58
  -7   1  -2    9.64    3.66
  -7   1  -1    9.11    0.98
  -7   1  -1    9.79    1.14
  -7   1  -1    9.74    2.08
  -7   1  -1    9.13    1.05
  -7   1   0  172.10   11.04
  -7   1   0  146.14    9.10
  -7   1   0  164.16    9.27
  -7   1   0  161.25    9.22
  -7   1   0  152.23   15.31
  -7   1   0  158.11   11.25
  -7   1   0  167.73    9.31
  -7   1   1   -0.20    0.57
  -7   1   1    0.12    0.38
  -7   1   1    0.70    0.45
  -7   1   1    0.29    0.84
  -7   1   1   -0.83    1.94
  -7   1   1    0.44    1.25
  -7   1   2   10.72    1.02
  -7   1   2   12.54    1.14
  -7   1   2   10.74    0.99
  -7   1   3   29.31    2.05
  -7   1   3   26.21    2.17
  -7   1   3   30.21    2.09
  -7   1   4    3.46    0.66
  -7   1   4    3.90    0.66
  -7   1   4    3.77    0.68
  -7   1   5   37.71    2.44
  -7   1   5   35.20    2.43
  -7   1   6    1.16    0.36
  -7   2  -9    0.10    0.15
  -7   2  -8    4.01    0.51
  -7   2  -8    5.46    0.99
  -7   2  -7    0.51    0.34
  -7   2  -7    1.09    0.96
  -7   2  -6    2.22    0.52
  -7   2  -6    1.46    1.05
  -7   2  -6    1.90    0.45
  -7   2  -5   10.82    1.04
  -7   2  -5    7.27    1.10
  -7   2  -5   11.04    1.95
  -7   2  -5   12.04    1.10
  -7   2  -4    1.35    1.25
  -7   2  -4    0.50    0.47
  -7   2  -3    7.07    1.69
  -7   2  -3    8.66    1.03
  -7   2  -3    8.48    0.95
  -7   2  -3    8.40    1.02
  -7   2  -2    0.15    1.02
  -7   2  -2   -0.14    0.48
  -7   2  -2   -0.22    0.42
  -7   2  -2   -0.05    0.32
  -7   2  -1   51.93    3.43
  -7   2  -1   49.31    3.48
  -7   2   0   40.50    4.30
  -7   2   0   51.44    3.29
  -7   2   0   45.59    3.20
  -7   2   0   50.97    3.38
  -7   2   1   13.92    1.32
  -7   2   1   13.22    1.22
  -7   2   1    9.95    1.37
  -7   2   2   -0.10    0.32
  -7   2   2    0.07    0.44
  -7   2   2    0.11    0.34
  -7   2   2   -0.18    0.52
  -7   2   3   -0.06    0.40
  -7   2   3    0.43    0.35
  -7   2   3    0.31    0.32
  -7   2   3   -0.14    0.50
  -7   2   3    0.73    0.51
  -7   2   4   59.98    3.49
  -7   2   4   48.06    3.27
  -7   2   5   25.37    1.74
  -7   2   5   22.18    1.74
  -7   2   6   -0.34    0.31
  -7   2   6   -0.17    0.35
  -7   3  -7   51.92    3.66
  -7   3  -6   30.12    2.08
  -7   3  -6   37.73    2.91
  -7   3  -5    0.88    0.43
  -7   3  -5    1.74    1.11
  -7   3  -4   11.16    1.11
  -7   3  -4    8.70    1.10
  -7   3  -3   13.14    1.32
  -7   3  -3   13.28    1.26
  -7   3  -3   11.62    1.42
  -7   3  -3   16.19    2.10
  -7   3  -2    0.21    0.45
  -7   3  -2    0.49    0.47
  -7   3  -2   -0.10    0.67
  -7   3  -1   37.21    2.37
  -7   3  -1   38.05    2.33
  -7   3  -1   35.30    2.39
  -7   3   0  119.32    6.36
  -7   3   0  117.29    6.16
  -7   3   0  103.62    6.04
  -7   3   1   78.63    4.92
  -7   3   1   81.69    4.89
  -7   3   1   86.40    5.09
  -7   3   1   68.25    5.10
  -7   3   2  162.61    8.66
  -7   3   2  138.04    8.45
  -7   3   2  165.03    8.78
  -7   3   2  144.72    8.49
  -7   3   2  140.82    8.63
  -7   3   2  143.00    8.50
  -7   3   2  141.13    8.80
  -7   3   3   34.15    2.27
  -7   3   3   32.29    2.40
  -7   3   3   31.71    2.19
  -7   3   3   32.70    2.45
  -7   3   4    1.84    0.47
  -7   3   4    2.74    0.56
  -7   3   4    1.71    0.56
  -7   3   4    2.85    0.59
  -7   3   5    5.05    0.61
  -7   3   5    5.81    0.72
  -7   4  -6    0.89    0.28
  -7   4  -5    9.64    0.91
  -7   4  -4   38.42    2.62
  -7   4  -3    7.31    0.91
  -7   4  -3    7.45    0.83
  -7   4  -3    8.02    0.98
  -7   4  -2   78.15    4.89
  -7   4  -2   80.18    4.75
  -7   4  -2   77.57    4.86
  -7   4  -2   77.20    5.02
  -7   4  -1   16.15    1.45
  -7   4  -1   16.37    1.32
  -7   4  -1   14.90    1.43
  -7   4  -1   12.31    1.44
  -7   4   0    2.19    0.65
  -7   4   0    1.75    0.50
  -7   4   0    2.21    0.67
  -7   4   1   55.66    3.59
  -7   4   1   52.92    3.43
  -7   4   1   52.56    3.46
  -7   4   1   60.00    3.73
  -7   4   2   13.82    1.25
  -7   4   2   12.98    1.24
  -7   4   2   11.67    1.13
  -7   4   2   15.98    1.46
  -7   4   3    1.21    0.43
  -7   4   3    0.89    0.48
  -7   4   3    1.10    0.49
  -7   4   3    0.75    0.45
  -7   4   3    1.03    0.35
  -7   4   3    0.75    0.46
  -7   4   4    0.20    0.34
  -7   4   4   -0.16    0.42
  -7   4   4    0.08    0.38
  -7   4   5    1.71    0.40
  -7   4   5    1.96    0.44
  -7   4   5    2.43    0.49
  -7   5  -5    1.94    0.34
  -7   5  -4   -0.31    0.40
  -7   5  -3    1.86    0.50
  -7   5  -2  195.77   11.39
  -7   5  -2  190.41   11.32
  -7   5  -2  217.90   11.47
  -7   5  -1    0.17    0.44
  -7   5  -1    0.13    0.42
  -7   5   0    2.18    0.57
  -7   5   0    1.48    0.53
  -7   5   0    2.24    0.60
  -7   5   1   21.03    1.69
  -7   5   1   21.02    1.76
  -7   5   1   25.60    1.91
  -7   5   2   29.43    1.98
  -7   5   2   28.12    1.96
  -7   5   2   29.21    2.02
  -7   5   3    4.66    0.63
  -7   5   3    4.89    0.69
  -7   5   3    4.39    0.60
  -7   5   4    7.64    0.79
  -7   5   4    8.28    0.77
  -7   5   5    9.23    0.82
  -7   5   5    9.87    0.79
  -7   6  -4    2.12    0.29
  -7   6  -3    6.84    0.66
  -7   6  -2    0.61    0.23
  -7   6  -1   17.46    1.29
  -7   6  -1   16.73    1.32
  -7   6   0    1.57    0.44
  -7   6   0    1.13    0.38
  -7   6   1    1.68    0.45
  -7   6   1    1.76    0.40
  -7   6   2    0.17    0.22
  -7   6   3    3.03    0.49
  -7   6   3    2.77    0.41
  -7   6   4    0.57    0.23
  -7   6   5    0.49    0.16
  -7   7  -1    0.42    0.17
  -7   7   0    1.02    0.23
  -7   7   0    0.59    0.18
  -7   7   1    5.86    0.48
  -7   7   1    5.57    0.54
  -7   7   2   26.27    1.65
  -6  -9  -8    7.55    0.64
  -6  -9  -7   13.85    1.19
  -6  -9  -7   15.16    1.11
  -6  -9  -6   84.62    5.07
  -6  -9  -6   94.83    4.98
  -6  -9  -5    1.06    0.79
  -6  -9  -5    0.14    0.31
  -6  -9  -5    0.45    0.43
  -6  -9  -4   30.80    1.92
  -6  -9  -4   29.77    2.07
  -6  -9  -3   49.23    2.80
  -6  -9  -3   43.98    2.77
  -6  -9  -3   45.10    2.93
  -6  -9  -2    2.94    0.36
  -6  -9  -2    4.10    0.51
  -6  -9  -2    3.34    0.34
  -6  -8 -10    3.20    0.42
  -6  -8  -9   75.18    4.04
  -6  -8  -9   56.36    4.05
  -6  -8  -8   16.55    2.05
  -6  -8  -8   22.27    1.95
  -6  -8  -7   14.08    2.07
  -6  -8  -7   21.73    1.74
  -6  -8  -7   22.41    1.64
  -6  -8  -7   15.29    1.65
  -6  -8  -6    0.70    0.99
  -6  -8  -6    0.30    0.44
  -6  -8  -6    0.38    0.56
  -6  -8  -5    1.88    1.21
  -6  -8  -5    1.25    0.50
  -6  -8  -5    0.89    0.62
  -6  -8  -5    2.00    0.66
  -6  -8  -4   -0.12    0.42
  -6  -8  -4    0.30    0.54
  -6  -8  -3    3.68    1.42
  -6  -8  -3    4.45    0.69
  -6  -8  -3    4.27    0.82
  -6  -8  -2    7.20    0.82
  -6  -8  -2    6.75    1.45
  -6  -8  -2    7.65    1.00
  -6  -8  -1   34.80    2.51
  -6  -8  -1   34.18    2.36
  -6  -8  -1   39.11    2.51
  -6  -8  -1   38.01    2.35
  -6  -8   0   44.83    2.73
  -6  -8   0   47.04    2.72
  -6  -8   0   42.11    2.49
  -6  -8   0   37.05    2.56
  -6  -8   1   22.51    1.46
  -6  -7 -11    3.52    0.47
  -6  -7 -10    0.29    0.39
  -6  -7 -10    0.16    0.42
  -6  -7 -10   -0.35    0.69
  -6  -7  -9   88.07    5.18
  -6  -7  -9   83.87    5.29
  -6  -7  -9   73.92    5.80
  -6  -7  -8   17.71    2.27
  -6  -7  -8   21.27    1.75
  -6  -7  -8   20.34    1.67
  -6  -7  -8   19.41    1.81
  -6  -7  -7   -1.09    1.13
  -6  -7  -7    0.08    0.55
  -6  -7  -7    0.33    0.89
  -6  -7  -7    0.10    0.65
  -6  -7  -7    0.80    0.60
  -6  -7  -6   -0.87    1.26
  -6  -7  -6    0.08    0.58
  -6  -7  -6   -0.28    0.61
  -6  -7  -6   -0.74    0.93
  -6  -7  -5   76.33    7.33
  -6  -7  -5  111.62    6.58
  -6  -7  -5  126.23    6.52
  -6  -7  -5   93.99    5.97
  -6  -7  -5  105.62    6.68
  -6  -7  -4    0.24    1.43
  -6  -7  -4    1.85    0.66
  -6  -7  -4   -0.10    0.73
  -6  -7  -4    0.32    0.35
  -6  -7  -4    0.10    0.63
  -6  -7  -3    8.89    2.15
  -6  -7  -3    9.46    1.11
  -6  -7  -3    7.88    1.18
  -6  -7  -3    7.22    1.14
  -6  -7  -2    1.71    1.37
  -6  -7  -2    0.48    0.47
  -6  -7  -2    1.34    0.68
  -6  -7  -1    8.59    1.72
  -6  -7  -1    8.67    1.17
  -6  -7  -1    9.88    1.05
  -6  -7   0   11.05    1.07
  -6  -7   0   12.03    1.07
  -6  -7   0   13.80    1.29
  -6  -7   1   34.34    2.46
  -6  -7   1   35.01    2.27
  -6  -7   1   33.81    2.34
  -6  -7   2    1.35    0.38
  -6  -6 -12   46.92    2.75
  -6  -6 -11    0.56    0.56
  -6  -6 -11    1.32    0.43
  -6  -6 -11    0.87    0.36
  -6  -6 -10   -0.27    0.73
  -6  -6 -10    0.29    0.76
  -6  -6 -10   -0.12    0.51
  -6  -6 -10    0.35    0.50
  -6  -6  -9   10.70    1.85
  -6  -6  -9   13.58    1.45
  -6  -6  -8   12.11    1.89
  -6  -6  -8   14.83    2.16
  -6  -6  -8   15.27    2.44
  -6  -6  -8   20.83    1.79
  -6  -6  -8   20.27    1.82
  -6  -6  -7    7.00    1.73
  -6  -6  -7    9.54    1.28
  -6  -6  -7    9.52    1.29
  -6  -6  -7    9.90    0.98
  -6  -6  -6   -0.46    1.17
  -6  -6  -6    3.32    1.31
  -6  -6  -6    2.09    1.43
  -6  -6  -6    3.23    1.86
  -6  -6  -6    1.73    0.75
  -6  -6  -6    1.94    0.78
  -6  -6  -6    1.48    0.49
  -6  -6  -5    1.80    1.41
  -6  -6  -5   -0.18    1.10
  -6  -6  -5    0.51    1.60
  -6  -6  -5    1.37    1.50
  -6  -6  -5    1.56    0.85
  -6  -6  -5    1.75    0.77
  -6  -6  -5    2.30    0.58
  -6  -6  -5    2.24    0.77
  -6  -6  -4  558.08   30.99
  -6  -6  -4  643.76   31.75
  -6  -6  -4  447.69   40.42
  -6  -6  -4  554.79   34.63
  -6  -6  -4  528.70   34.50
  -6  -6  -4  469.09   31.61
  -6  -6  -4  586.44   31.49
  -6  -6  -4  441.21   32.51
  -6  -6  -4  628.94   31.41
  -6  -6  -3   10.89    2.77
  -6  -6  -3   13.90    1.66
  -6  -6  -3   17.37    3.33
  -6  -6  -3   17.69    1.62
  -6  -6  -3   15.50    1.36
  -6  -6  -3   13.62    1.64
  -6  -6  -2   16.20    3.00
  -6  -6  -2   24.32    2.16
  -6  -6  -2   19.50    1.95
  -6  -6  -2   21.50    1.74
  -6  -6  -1   15.38    2.67
  -6  -6  -1   20.87    1.63
  -6  -6  -1   17.29    1.86
  -6  -6  -1   23.92    1.88
  -6  -6   0    1.33    0.55
  -6  -6   0    0.52    1.07
  -6  -6   0    1.26    0.54
  -6  -6   0    0.72    0.66
  -6  -6   0    1.83    0.51
  -6  -6   1   11.46    1.06
  -6  -6   1    8.84    1.19
  -6  -6   1   10.69    1.10
  -6  -6   1    7.65    1.11
  -6  -6   1    7.87    0.93
  -6  -6   2    1.99    0.49
  -6  -6   2    1.68    0.49
  -6  -6   2    1.70    0.42
  -6  -6   2    2.26    0.62
  -6  -6   3   22.60    1.68
  -6  -6   4    6.81    0.60
  -6  -5 -12    0.44    0.28
  -6  -5 -11    0.99    0.41
  -6  -5 -11    1.21    0.77
  -6  -5 -11    0.62    0.67
  -6  -5 -10   17.54    2.16
  -6  -5 -10   12.67    2.02
  -6  -5  -9    0.36    0.36
  -6  -5  -9    0.40    1.07
  -6  -5  -9   -0.61    1.08
  -6  -5  -8  102.44    6.71
  -6  -5  -8  106.40    8.09
  -6  -5  -7    7.15    1.73
  -6  -5  -7    6.21    1.87
  -6  -5  -7    7.98    1.14
  -6  -5  -7    6.57    0.85
  -6  -5  -7    4.75    0.76
  -6  -5  -7    3.53    1.30
  -6  -5  -7    4.74    1.99
  -6  -5  -7    3.76    1.85
  -6  -5  -7    5.51    1.52
  -6  -5  -6    8.37    2.33
  -6  -5  -6    6.05    1.57
  -6  -5  -6    3.88    1.27
  -6  -5  -6    4.83    1.67
  -6  -5  -6    6.73    1.10
  -6  -5  -6    5.45    0.80
  -6  -5  -6    2.01    1.45
  -6  -5  -6    4.21    1.77
  -6  -5  -6    1.18    2.46
  -6  -5  -5  273.83   27.83
  -6  -5  -5  350.44   23.17
  -6  -5  -5  310.77   20.86
  -6  -5  -5  371.48   19.57
  -6  -5  -5  257.88   20.75
  -6  -5  -5  364.32   23.33
  -6  -5  -5  383.29   19.98
  -6  -5  -4   33.79    8.31
  -6  -5  -4   46.85    5.66
  -6  -5  -4   39.69    3.93
  -6  -5  -4   49.04    3.13
  -6  -5  -4   36.91    4.39
  -6  -5  -4   43.40    5.52
  -6  -5  -4   48.11    3.44
  -6  -5  -3  256.62   14.83
  -6  -5  -3  262.57   14.51
  -6  -5  -3  292.70   15.05
  -6  -5  -3  216.57   15.11
  -6  -5  -3  225.95   17.35
  -6  -5  -3  232.06   17.39
  -6  -5  -2   12.71    1.36
  -6  -5  -2   15.37    1.64
  -6  -5  -2   18.63    1.55
  -6  -5  -2   13.68    1.59
  -6  -5  -1   15.77    6.01
  -6  -5  -1   16.33    1.71
  -6  -5  -1   23.40    1.67
  -6  -5  -1   12.48    2.53
  -6  -5  -1   14.43    1.38
  -6  -5  -1   14.18    1.52
  -6  -5   0   19.95    1.61
  -6  -5   0   16.90    1.75
  -6  -5   1   34.79    2.52
  -6  -5   1   34.21    2.70
  -6  -5   1   34.03    2.44
  -6  -5   1   29.35    2.56
  -6  -5   2   36.50    2.46
  -6  -5   2   31.10    2.39
  -6  -5   2   30.06    2.54
  -6  -5   3   18.47    1.41
  -6  -5   3   15.43    1.42
  -6  -5   4    4.71    0.69
  -6  -5   5   98.97    5.64
  -6  -4 -12    2.32    0.41
  -6  -4 -11   -0.28    0.59
  -6  -4 -11    0.17    0.22
  -6  -4 -10    5.13    1.17
  -6  -4 -10    3.30    1.26
  -6  -4 -10    4.34    1.26
  -6  -4 -10    4.43    0.61
  -6  -4  -9    0.88    1.17
  -6  -4  -9    0.20    1.13
  -6  -4  -9    0.95    0.87
  -6  -4  -9    0.44    0.39
  -6  -4  -8   88.69    6.88
  -6  -4  -8   93.56    6.94
  -6  -4  -8   78.87    6.06
  -6  -4  -8   87.97    5.31
  -6  -4  -8   82.46    6.51
  -6  -4  -8   88.47    7.15
  -6  -4  -7  107.21    7.42
  -6  -4  -7  102.86    7.69
  -6  -4  -7  111.43    9.26
  -6  -4  -7  103.22    5.75
  -6  -4  -7  112.16    9.24
  -6  -4  -6   94.64   13.02
  -6  -4  -6  144.82   11.09
  -6  -4  -6  128.10    9.45
  -6  -4  -6  116.93    8.72
  -6  -4  -6  122.07    9.16
  -6  -4  -6   92.28    8.39
  -6  -4  -6  147.65    7.66
  -6  -4  -6  139.96   11.01
  -6  -4  -5    1.20    4.65
  -6  -4  -5    3.81    1.72
  -6  -4  -5    5.12    1.55
  -6  -4  -5    5.99    1.67
  -6  -4  -5    5.10    1.86
  -6  -4  -5    3.17    1.66
  -6  -4  -5    3.41    1.84
  -6  -4  -5    4.22    0.76
  -6  -4  -5    3.78    0.68
  -6  -4  -5    5.06    1.01
  -6  -4  -4   26.33    7.23
  -6  -4  -4   44.40    5.21
  -6  -4  -4   32.74    3.70
  -6  -4  -4   30.26    3.93
  -6  -4  -4   44.87    5.21
  -6  -4  -4   53.56    3.32
  -6  -4  -4   46.01    2.88
  -6  -4  -4   35.10    2.69
  -6  -4  -3   49.90    5.62
  -6  -4  -3   49.31    5.47
  -6  -4  -3   33.28    7.96
  -6  -4  -3   34.71    4.33
  -6  -4  -3   41.48    4.02
  -6  -4  -3   50.91    3.28
  -6  -4  -3   57.23    3.63
  -6  -4  -2   -1.34    3.40
  -6  -4  -2    1.01    1.66
  -6  -4  -2    1.42    0.87
  -6  -4  -2    2.40    0.58
  -6  -4  -2    1.61    0.70
  -6  -4  -1   45.54    4.57
  -6  -4  -1   44.00    9.22
  -6  -4  -1   32.01    4.06
  -6  -4  -1   45.36    2.99
  -6  -4  -1   40.38    3.08
  -6  -4  -1   49.10    3.28
  -6  -4   0    0.09    0.52
  -6  -4   0    0.47    0.38
  -6  -4   0    0.29    0.46
  -6  -4   0   -1.18    3.00
  -6  -4   0    0.26    0.61
  -6  -4   0    0.44    1.20
  -6  -4   0   -0.12    0.41
  -6  -4   0    0.35    0.50
  -6  -4   1   43.79    4.51
  -6  -4   1   40.89    7.70
  -6  -4   1   49.99    3.58
  -6  -4   1   54.43    3.67
  -6  -4   1   52.99    3.76
  -6  -4   1   59.54    3.60
  -6  -4   1   43.76    3.55
  -6  -4   1   54.46    3.37
  -6  -4   2   46.33    3.24
  -6  -4   2   48.18    3.42
  -6  -4   2   52.20    3.28
  -6  -4   2   37.85    3.17
  -6  -4   2   45.00    3.01
  -6  -4   2   48.55    3.20
  -6  -4   3    4.58    0.80
  -6  -4   3    3.87    0.70
  -6  -4   3    4.52    0.89
  -6  -4   3    3.67    0.62
  -6  -4   3    5.75    0.82
  -6  -4   4    9.44    1.07
  -6  -4   4    7.64    0.94
  -6  -4   5   72.34    4.41
  -6  -3 -11   15.30    1.11
  -6  -3 -10   41.29    3.63
  -6  -3 -10   42.40    3.78
  -6  -3 -10   50.51    2.96
  -6  -3 -10   44.61    2.94
  -6  -3  -9    6.24    1.66
  -6  -3  -9    6.91    1.55
  -6  -3  -9    4.88    1.46
  -6  -3  -9    6.08    0.75
  -6  -3  -9    4.52    0.74
  -6  -3  -9    5.10    1.31
  -6  -3  -8  205.95   13.18
  -6  -3  -8  198.45   11.39
  -6  -3  -8  204.39   11.44
  -6  -3  -8  200.89   13.58
  -6  -3  -8  193.35   12.59
  -6  -3  -8  189.64   13.04
  -6  -3  -8  188.21   12.79
  -6  -3  -7  431.67   25.41
  -6  -3  -7  444.28   26.07
  -6  -3  -7  422.92   25.92
  -6  -3  -7  454.15   26.68
  -6  -3  -7  457.18   24.34
  -6  -3  -7  446.64   24.29
  -6  -3  -7  347.68   25.27
  -6  -3  -7  448.01   26.21
  -6  -3  -6  318.59   19.46
  -6  -3  -6  318.31   20.27
  -6  -3  -6  341.46   20.32
  -6  -3  -6  367.85   20.72
  -6  -3  -6  367.99   21.11
  -6  -3  -5  169.87    9.71
  -6  -3  -5  127.30   15.76
  -6  -3  -5  185.17   11.84
  -6  -3  -5  199.10   12.94
  -6  -3  -5  162.45   10.87
  -6  -3  -5  185.19   11.52
  -6  -3  -5  121.81   10.58
  -6  -3  -5  182.76   11.46
  -6  -3  -5  194.27   12.88
  -6  -3  -4   -1.12    2.60
  -6  -3  -4    0.68    1.00
  -6  -3  -4    0.52    0.86
  -6  -3  -4    2.31    1.19
  -6  -3  -4    0.21    1.23
  -6  -3  -4   -0.34    0.87
  -6  -3  -4    0.38    0.43
  -6  -3  -4   -0.17    0.35
  -6  -3  -4   -0.09    0.58
  -6  -3  -3   33.79    4.07
  -6  -3  -3   29.89    3.88
  -6  -3  -3   26.02    3.11
  -6  -3  -3   28.21    2.21
  -6  -3  -3   36.20    2.26
  -6  -3  -3   36.85    2.43
  -6  -3  -3   22.60    3.27
  -6  -3  -3   43.48    2.79
  -6  -3  -3   19.65    6.02
  -6  -3  -2    0.18    0.30
  -6  -3  -2    0.79    0.47
  -6  -3  -2    0.08    0.55
  -6  -3  -2    0.32    0.92
  -6  -3  -1   22.20    3.17
  -6  -3  -1   26.10    2.64
  -6  -3  -1   34.22    2.43
  -6  -3  -1   22.60    6.49
  -6  -3  -1   31.25    3.80
  -6  -3   0   10.71    2.10
  -6  -3   0    6.78    3.74
  -6  -3   0    6.53    1.87
  -6  -3   0   10.10    1.20
  -6  -3   0    9.27    1.16
  -6  -3   1  156.61    9.62
  -6  -3   1  137.26    9.30
  -6  -3   1  146.36   11.07
  -6  -3   1  121.67   14.96
  -6  -3   1  153.80    9.54
  -6  -3   1  204.21    9.73
  -6  -3   1  179.44    9.44
  -6  -3   2  312.37   15.68
  -6  -3   2  295.26   15.48
  -6  -3   2  265.42   17.20
  -6  -3   2  248.92   15.55
  -6  -3   2  286.47   15.81
  -6  -3   2  267.79   15.60
  -6  -3   3  516.70   33.00
  -6  -3   3  599.51   33.07
  -6  -3   3  629.27   33.33
  -6  -3   3  616.00   32.95
  -6  -3   3  633.62   33.11
  -6  -3   4   71.10    4.27
  -6  -3   4   57.44    3.87
  -6  -3   4   62.94    4.02
  -6  -3   5   53.19    3.52
  -6  -3   6   17.42    1.36
  -6  -2 -11   -0.09    0.24
  -6  -2 -11   -0.03    0.18
  -6  -2 -10    0.50    0.35
  -6  -2 -10   -0.35    0.36
  -6  -2 -10    0.10    0.61
  -6  -2  -9  104.63    7.93
  -6  -2  -9  123.50    8.77
  -6  -2  -9  126.81    7.10
  -6  -2  -9  124.52    7.10
  -6  -2  -9  121.42    8.31
  -6  -2  -9  103.11    7.85
  -6  -2  -8    7.86    1.62
  -6  -2  -8    9.25    1.83
  -6  -2  -8    7.28    1.72
  -6  -2  -8    8.77    2.01
  -6  -2  -8    8.90    1.02
  -6  -2  -8    9.42    1.03
  -6  -2  -8    8.25    1.77
  -6  -2  -7   26.33    3.05
  -6  -2  -7   30.46    3.45
  -6  -2  -7   30.87    3.39
  -6  -2  -7   26.21    3.37
  -6  -2  -7   28.83    3.97
  -6  -2  -7   28.58    2.14
  -6  -2  -6    3.92    2.70
  -6  -2  -6    2.24    1.02
  -6  -2  -6    2.83    1.47
  -6  -2  -6    2.48    1.29
  -6  -2  -6    2.62    1.16
  -6  -2  -6    1.28    1.44
  -6  -2  -6    1.41    1.10
  -6  -2  -6    2.26    0.56
  -6  -2  -5   56.56    9.19
  -6  -2  -5   98.40    6.79
  -6  -2  -5   75.53    6.10
  -6  -2  -5   73.84    5.97
  -6  -2  -5   67.12    6.36
  -6  -2  -5   85.63    7.14
  -6  -2  -5   80.03    4.85
  -6  -2  -4   61.29    9.55
  -6  -2  -4   73.14    6.05
  -6  -2  -4   71.52    5.83
  -6  -2  -4   78.44    6.64
  -6  -2  -4   70.63    4.61
  -6  -2  -4   77.23    4.51
  -6  -2  -4   79.86    4.94
  -6  -2  -3   11.99    2.14
  -6  -2  -3   10.42    1.82
  -6  -2  -3    7.03    1.78
  -6  -2  -3   10.93    0.97
  -6  -2  -3   10.06    0.97
  -6  -2  -3    9.33    1.15
  -6  -2  -2    0.50    0.94
  -6  -2  -2    1.04    3.05
  -6  -2  -2    1.35    0.40
  -6  -2  -2    0.57    0.32
  -6  -2  -2    1.37    0.50
  -6  -2  -2    0.97    0.57
  -6  -2  -1   98.43    7.27
  -6  -2  -1   76.97    7.50
  -6  -2  -1  135.35    9.23
  -6  -2  -1   79.92   11.84
  -6  -2  -1  115.52    6.76
  -6  -2  -1  112.01    6.46
  -6  -2  -1  114.19    6.53
  -6  -2  -1  117.07    6.65
  -6  -2   0   87.29    7.11
  -6  -2   0   82.23    5.04
  -6  -2   0   77.62    4.83
  -6  -2   0   84.78    4.93
  -6  -2   0   81.96    5.12
  -6  -2   1   -0.16    0.45
  -6  -2   1    0.23    0.43
  -6  -2   1    0.29    0.86
  -6  -2   1   -1.92    2.44
  -6  -2   1    0.26    1.51
  -6  -2   1    0.64    0.36
  -6  -2   1   -0.25    0.40
  -6  -2   1    1.47    0.53
  -6  -2   2   65.00    4.35
  -6  -2   2   63.95    4.30
  -6  -2   2   83.55    4.48
  -6  -2   2   75.93    4.25
  -6  -2   2   71.42    6.00
  -6  -2   2   51.96    7.97
  -6  -2   2   57.14    5.31
  -6  -2   2   52.63    4.00
  -6  -2   2   61.61    4.20
  -6  -2   3   68.78    5.85
  -6  -2   3   70.18    4.53
  -6  -2   3   71.97    4.20
  -6  -2   3   75.86    4.34
  -6  -2   4   90.61    5.61
  -6  -2   4   94.71    5.68
  -6  -2   4   91.94    5.55
  -6  -2   4  101.04    5.98
  -6  -2   5    0.56    0.49
  -6  -2   5    1.68    0.49
  -6  -2   5    1.62    0.62
  -6  -2   6    0.47    0.44
  -6  -2   6    1.24    0.51
  -6  -2   7    0.52    0.31
  -6  -1 -11    0.87    0.21
  -6  -1 -11    1.37    0.31
  -6  -1 -10  350.18   19.63
  -6  -1 -10  356.17   19.60
  -6  -1  -9   15.42    1.34
  -6  -1  -9   16.40    1.34
  -6  -1  -9   15.60    2.36
  -6  -1  -9   11.66    1.93
  -6  -1  -9   13.79    1.77
  -6  -1  -8   79.90    6.11
  -6  -1  -8   71.55    5.67
  -6  -1  -8   83.82    7.10
  -6  -1  -8   82.01    4.88
  -6  -1  -8   82.40    6.70
  -6  -1  -8   66.16    5.74
  -6  -1  -7    1.83    1.09
  -6  -1  -7    6.22    1.78
  -6  -1  -7    4.65    1.39
  -6  -1  -7    3.45    1.30
  -6  -1  -7    3.94    0.69
  -6  -1  -7    3.44    1.27
  -6  -1  -7    1.48    1.16
  -6  -1  -6   52.87    5.14
  -6  -1  -6   46.87    4.26
  -6  -1  -6   57.50    5.01
  -6  -1  -6   47.90    4.13
  -6  -1  -6   61.25    5.59
  -6  -1  -5  147.06   10.62
  -6  -1  -5  119.30    9.37
  -6  -1  -5  138.11    9.39
  -6  -1  -5  154.15   10.43
  -6  -1  -5  118.34   12.87
  -6  -1  -5  158.79   10.23
  -6  -1  -4    1.01    0.61
  -6  -1  -4    0.18    0.33
  -6  -1  -4   -0.27    0.98
  -6  -1  -4   -0.29    1.01
  -6  -1  -4    0.48    1.52
  -6  -1  -4    0.74    1.04
  -6  -1  -4   -0.25    0.99
  -6  -1  -3   22.77    3.05
  -6  -1  -3   23.16    1.71
  -6  -1  -3   21.32    3.24
  -6  -1  -3   19.76    2.85
  -6  -1  -3   24.85    1.76
  -6  -1  -3   20.37    5.41
  -6  -1  -2   59.70    5.03
  -6  -1  -2   65.54    5.44
  -6  -1  -2   85.10    4.64
  -6  -1  -2   65.32    6.21
  -6  -1  -2   79.89    4.57
  -6  -1  -2   81.39    4.71
  -6  -1  -2   70.10    4.47
  -6  -1  -2   54.40    8.89
  -6  -1  -1    3.49    0.60
  -6  -1  -1    3.67    1.10
  -6  -1  -1    3.12    0.55
  -6  -1  -1    2.87    0.63
  -6  -1   0  488.68   32.37
  -6  -1   0  582.03   30.67
  -6  -1   0  552.01   30.54
  -6  -1   0  565.95   30.57
  -6  -1   0  545.66   30.74
  -6  -1   1    0.74    0.43
  -6  -1   1    0.24    1.38
  -6  -1   1    0.76    0.44
  -6  -1   1    0.53    0.39
  -6  -1   1    0.59    0.97
  -6  -1   1   -0.90    2.46
  -6  -1   1    0.57    0.43
  -6  -1   2    3.04    0.61
  -6  -1   2    2.97    1.55
  -6  -1   2    3.36    0.57
  -6  -1   2    3.22    0.63
  -6  -1   2    3.57    0.61
  -6  -1   2    3.17    2.48
  -6  -1   2    1.74    1.18
  -6  -1   2    2.43    0.64
  -6  -1   2    4.59    0.76
  -6  -1   3   24.11    3.14
  -6  -1   3   27.01    1.84
  -6  -1   3   20.12    2.44
  -6  -1   3   20.10    1.66
  -6  -1   3   26.10    1.89
  -6  -1   3   29.17    2.07
  -6  -1   3   15.09    1.60
  -6  -1   3   20.31    1.80
  -6  -1   3   19.35    1.85
  -6  -1   4    2.00    0.60
  -6  -1   4    2.73    0.73
  -6  -1   4    2.73    0.65
  -6  -1   4    2.21    0.54
  -6  -1   4    1.92    0.66
  -6  -1   5    0.24    0.40
  -6  -1   5    1.21    0.51
  -6  -1   5    0.72    0.42
  -6  -1   5    0.85    0.53
  -6  -1   5    0.93    0.70
  -6  -1   6    8.18    0.96
  -6  -1   6   10.90    0.96
  -6  -1   6    8.60    0.93
  -6  -1   6   10.58    1.11
  -6  -1   7   30.71    2.10
  -6   0 -11    0.39    0.20
  -6   0 -10    0.93    0.83
  -6   0 -10    0.92    0.38
  -6   0 -10    0.83    0.30
  -6   0  -9   26.28    1.93
  -6   0  -9   24.62    3.06
  -6   0  -8    9.53    1.50
  -6   0  -8   12.34    2.22
  -6   0  -8   11.25    1.10
  -6   0  -7    5.02    1.39
  -6   0  -7   10.67    2.27
  -6   0  -7    8.08    0.93
  -6   0  -7    8.79    2.03
  -6   0  -7    8.82    1.83
  -6   0  -6    2.95    0.59
  -6   0  -6    3.02    1.30
  -6   0  -6    2.46    1.27
  -6   0  -6    4.03    1.29
  -6   0  -6    2.59    0.61
  -6   0  -6    2.46    1.32
  -6   0  -6    3.52    1.20
  -6   0  -5    5.00    1.39
  -6   0  -5    4.32    1.60
  -6   0  -5    3.85    1.31
  -6   0  -5    6.34    1.59
  -6   0  -5    4.13    1.38
  -6   0  -5    3.47    2.40
  -6   0  -5    4.00    0.71
  -6   0  -4   58.71    3.83
  -6   0  -4   64.90    5.63
  -6   0  -4   61.15    3.79
  -6   0  -4   61.12    5.62
  -6   0  -4   62.43    5.19
  -6   0  -4   56.16    4.76
  -6   0  -4   60.89    5.45
  -6   0  -4   45.78    7.54
  -6   0  -3   78.58    5.01
  -6   0  -3   80.04    6.58
  -6   0  -3   87.03    5.04
  -6   0  -3   83.96    6.72
  -6   0  -3   79.84    5.95
  -6   0  -3   74.30    9.76
  -6   0  -3   77.75    6.53
  -6   0  -3   90.94    6.81
  -6   0  -2   20.64    2.93
  -6   0  -2   21.89    2.64
  -6   0  -2   25.50    1.97
  -6   0  -2   31.44    2.16
  -6   0  -2   18.19    5.36
  -6   0  -1   69.50    5.37
  -6   0  -1   71.74    5.70
  -6   0  -1   88.45    5.08
  -6   0  -1   83.72    4.97
  -6   0  -1   79.81    4.92
  -6   0  -1   86.67    7.11
  -6   0   0  148.85    8.35
  -6   0   0  131.95    9.91
  -6   0   0  134.61    8.24
  -6   0   0  164.84    8.55
  -6   0   0  147.67    8.32
  -6   0   0  144.66    8.43
  -6   0   0  144.25    8.30
  -6   0   0  128.72    8.25
  -6   0   0  108.45   13.35
  -6   0   0  142.21   10.44
  -6   0   1    0.63    0.44
  -6   0   1    1.36    1.51
  -6   0   1    0.98    0.50
  -6   0   1    0.85    0.45
  -6   0   1    1.52    0.48
  -6   0   1    0.76    0.40
  -6   0   1    0.42    0.41
  -6   0   1    0.84    1.96
  -6   0   1    1.50    1.08
  -6   0   2   37.55    3.49
  -6   0   2   57.71    3.44
  -6   0   2   65.50    5.00
  -6   0   2   61.94    3.71
  -6   0   2   57.80    3.46
  -6   0   2   48.12    3.36
  -6   0   2   58.03    3.46
  -6   0   2   50.72    7.57
  -6   0   2   53.95    3.52
  -6   0   2   52.04    3.54
  -6   0   3    3.78    0.64
  -6   0   3    3.59    1.26
  -6   0   3    4.72    0.80
  -6   0   3    3.82    0.59
  -6   0   3    6.74    0.98
  -6   0   3    4.25    0.66
  -6   0   4  208.56   10.83
  -6   0   4  165.07   10.54
  -6   0   4  166.73   10.71
  -6   0   4  185.32   10.54
  -6   0   4  206.12   10.69
  -6   0   4  167.00   12.35
  -6   0   5   57.79    3.51
  -6   0   5   49.77    3.62
  -6   0   5   53.96    3.55
  -6   0   5   52.40    3.49
  -6   0   6   38.36    2.58
  -6   0   6   42.75    2.81
  -6   0   6   40.79    2.64
  -6   0   6   39.78    2.64
  -6   0   6   34.32    2.57
  -6   0   7   16.26    1.38
  -6   1 -10    0.30    0.20
  -6   1  -9    6.94    1.32
  -6   1  -8   59.16    3.82
  -6   1  -8   61.12    3.90
  -6   1  -8   67.06    5.69
  -6   1  -7    3.09    1.21
  -6   1  -7    2.79    1.24
  -6   1  -7    2.22    0.92
  -6   1  -7    3.69    0.68
  -6   1  -7    2.87    0.63
  -6   1  -7    3.30    1.40
  -6   1  -6   44.03    4.56
  -6   1  -6   40.27    4.41
  -6   1  -6   43.53    2.94
  -6   1  -6   41.12    4.81
  -6   1  -6   39.31    3.55
  -6   1  -6   45.25    4.66
  -6   1  -6   42.62    2.97
  -6   1  -5  106.94    6.69
  -6   1  -5  118.21    8.72
  -6   1  -5  108.07    8.36
  -6   1  -5  108.23    6.61
  -6   1  -5  110.46    6.68
  -6   1  -5  116.16    9.00
  -6   1  -5  136.69    7.94
  -6   1  -5  110.19    7.59
  -6   1  -5  114.77    8.73
  -6   1  -5  107.52   10.86
  -6   1  -4  219.52   12.73
  -6   1  -4  215.32   14.44
  -6   1  -4  227.45   14.77
  -6   1  -4  225.74   12.73
  -6   1  -4  233.37   14.94
  -6   1  -4  252.58   14.24
  -6   1  -4  210.36   13.66
  -6   1  -4  214.67   14.68
  -6   1  -4  207.73   17.98
  -6   1  -3  108.15    7.97
  -6   1  -3  101.21    6.14
  -6   1  -3  116.51    6.29
  -6   1  -3   98.52    7.58
  -6   1  -3   88.59    7.03
  -6   1  -3  101.84    7.08
  -6   1  -3   89.65    7.38
  -6   1  -3   91.07    7.56
  -6   1  -3  104.99    6.20
  -6   1  -3  109.40   11.57
  -6   1  -2   -0.82    2.08
  -6   1  -2    0.46    1.08
  -6   1  -2    0.15    0.88
  -6   1  -2    0.30    0.41
  -6   1  -2    0.73    0.80
  -6   1  -2    0.87    0.47
  -6   1  -2   -0.66    1.46
  -6   1  -1    1.10    1.37
  -6   1  -1    1.08    1.08
  -6   1  -1    0.78    0.43
  -6   1  -1    0.80    0.40
  -6   1  -1    0.27    0.37
  -6   1  -1    0.62    0.44
  -6   1  -1    0.82    2.25
  -6   1  -1    0.82    0.94
  -6   1   0   80.38    4.93
  -6   1   0   76.64    6.61
  -6   1   0   66.17    9.24
  -6   1   0   82.18    4.98
  -6   1   0   77.22    4.83
  -6   1   0   81.46    5.02
  -6   1   0   78.14    6.35
  -6   1   1   43.65    2.97
  -6   1   1   40.34    4.38
  -6   1   1   42.33    7.21
  -6   1   1   44.36    3.05
  -6   1   1   44.07    2.93
  -6   1   1   42.11    4.25
  -6   1   2    9.88    2.04
  -6   1   2   12.50    1.26
  -6   1   2   10.96    1.10
  -6   1   2   10.86    1.22
  -6   1   2   10.59    1.04
  -6   1   2    9.67    1.08
  -6   1   2   11.42    1.07
  -6   1   2   10.58    1.10
  -6   1   2    9.67    2.04
  -6   1   2   15.15    4.20
  -6   1   2    6.68    1.14
  -6   1   3    1.89    0.58
  -6   1   3    2.43    0.56
  -6   1   3    2.67    0.62
  -6   1   3    2.62    0.51
  -6   1   3    1.94    0.62
  -6   1   3    0.78    0.54
  -6   1   3    1.73    1.08
  -6   1   4  249.00   14.18
  -6   1   4  256.16   14.28
  -6   1   4  280.00   14.36
  -6   1   4  218.50   13.97
  -6   1   4  303.83   14.47
  -6   1   4  277.71   14.37
  -6   1   4  218.62   14.27
  -6   1   4  227.14   16.08
  -6   1   5   -0.21    0.48
  -6   1   5   -0.30    0.50
  -6   1   5    0.07    0.51
  -6   1   5   -0.18    0.43
  -6   1   5    0.57    0.50
  -6   1   5    0.05    0.38
  -6   1   6    3.09    0.61
  -6   1   6    2.63    0.67
  -6   1   6    3.82    0.66
  -6   1   7    4.00    0.57
  -6   1   7    4.22    0.68
  -6   2 -10    1.16    0.23
  -6   2 -10    0.49    0.13
  -6   2  -9   10.99    0.95
  -6   2  -9   10.88    1.27
  -6   2  -8    4.79    1.21
  -6   2  -8    4.78    0.68
  -6   2  -8    4.48    1.24
  -6   2  -8    6.15    0.76
  -6   2  -7   17.17    2.38
  -6   2  -7   23.21    1.75
  -6   2  -7   17.46    2.72
  -6   2  -7   22.77    1.75
  -6   2  -6   57.34    5.48
  -6   2  -6   56.29    3.75
  -6   2  -6   56.79    3.66
  -6   2  -6   54.69    4.71
  -6   2  -6   59.93    3.77
  -6   2  -6   62.08    5.53
  -6   2  -5   52.45    5.10
  -6   2  -5   40.17    4.14
  -6   2  -5   50.04    3.29
  -6   2  -5   49.15    3.31
  -6   2  -5   41.53    4.77
  -6   2  -5   62.01    5.22
  -6   2  -5   49.67    3.27
  -6   2  -4   43.21    4.33
  -6   2  -4   38.16    2.75
  -6   2  -4   43.39    2.90
  -6   2  -3   24.69    3.06
  -6   2  -3   32.13    2.31
  -6   2  -3   29.38    3.42
  -6   2  -3   28.28    2.14
  -6   2  -3   30.49    2.27
  -6   2  -3   31.10    5.70
  -6   2  -2  105.05    7.93
  -6   2  -2  116.93    7.15
  -6   2  -2  142.74    8.84
  -6   2  -2  116.29    8.60
  -6   2  -2  123.29    7.24
  -6   2  -2  129.06   12.81
  -6   2  -2  122.34    8.60
  -6   2  -1  517.58   30.10
  -6   2  -1  618.17   31.89
  -6   2  -1  562.96   30.24
  -6   2  -1  551.95   37.04
  -6   2  -1  519.43   31.67
  -6   2  -1  531.16   30.94
  -6   2   0   21.28    2.78
  -6   2   0   21.17    1.76
  -6   2   0   22.71    1.86
  -6   2   0   21.64    1.78
  -6   2   1   45.96    4.03
  -6   2   1   38.78    2.63
  -6   2   1   43.04    6.85
  -6   2   1   39.60    3.90
  -6   2   2   18.29    1.56
  -6   2   2   16.47    1.51
  -6   2   2   16.06    1.41
  -6   2   2   13.30    1.27
  -6   2   2   12.15    2.18
  -6   2   2    9.65    1.41
  -6   2   3   17.97    1.80
  -6   2   3   21.43    1.71
  -6   2   3   21.17    1.72
  -6   2   3   23.27    1.90
  -6   2   3   23.70    1.85
  -6   2   3   22.53    1.64
  -6   2   3   16.54    1.64
  -6   2   3   20.62    2.90
  -6   2   4   57.59    3.70
  -6   2   4   56.95    3.66
  -6   2   4   54.54    3.59
  -6   2   4   54.14    3.43
  -6   2   4   57.95    3.78
  -6   2   4   45.41    3.59
  -6   2   4   47.30    4.94
  -6   2   4   63.72    3.67
  -6   2   5   14.68    1.33
  -6   2   5   11.73    1.31
  -6   2   5   15.33    1.35
  -6   2   5   13.61    1.26
  -6   2   6    9.98    1.00
  -6   2   6   12.12    1.13
  -6   2   6    9.49    0.97
  -6   2   6    7.91    1.04
  -6   2   7   46.24    2.87
  -6   3  -8   53.77    3.61
  -6   3  -8   51.30    3.16
  -6   3  -7  111.70    6.21
  -6   3  -7  106.12    6.25
  -6   3  -7   99.50    6.09
  -6   3  -7  108.98    6.95
  -6   3  -6   71.08    5.93
  -6   3  -6   73.60    4.46
  -6   3  -6   72.32    4.49
  -6   3  -6   71.60    5.40
  -6   3  -5    1.09    0.51
  -6   3  -5    1.97    0.58
  -6   3  -5    1.23    0.42
  -6   3  -5    0.73    0.80
  -6   3  -5    0.92    0.90
  -6   3  -5    1.50    1.22
  -6   3  -4    0.35    0.50
  -6   3  -4    0.31    0.30
  -6   3  -4    0.72    0.75
  -6   3  -4   -0.31    0.72
  -6   3  -4    0.51    1.27
  -6   3  -4   -0.17    0.51
  -6   3  -3   89.82    5.08
  -6   3  -3   89.08    5.02
  -6   3  -3   80.32    6.29
  -6   3  -3   74.86    6.68
  -6   3  -2  297.93   14.04
  -6   3  -2  322.45   15.35
  -6   3  -2  302.94   14.10
  -6   3  -1  323.62   15.07
  -6   3  -1  374.95   16.40
  -6   3  -1  338.47   15.20
  -6   3   0    3.11    0.60
  -6   3   0    3.17    0.72
  -6   3   0    3.28    0.68
  -6   3   1  393.47   21.71
  -6   3   1  383.18   21.58
  -6   3   1  365.52   21.73
  -6   3   1  401.03   21.71
  -6   3   2   36.70    3.72
  -6   3   2   39.83    2.73
  -6   3   2   36.98    2.61
  -6   3   2   37.28    2.78
  -6   3   2   41.32    2.86
  -6   3   2   32.30    2.82
  -6   3   3   11.68    2.02
  -6   3   3   15.56    1.52
  -6   3   3   14.03    1.42
  -6   3   3   13.72    1.29
  -6   3   3   13.85    1.24
  -6   3   3   13.74    1.50
  -6   3   3   14.07    1.32
  -6   3   3   14.97    1.36
  -6   3   4   42.45    3.07
  -6   3   4   44.83    2.99
  -6   3   4   39.65    2.73
  -6   3   4   44.31    3.08
  -6   3   4   44.45    2.96
  -6   3   4   42.77    2.94
  -6   3   5    2.03    0.63
  -6   3   5    2.48    0.63
  -6   3   5    2.40    0.61
  -6   3   5    1.68    0.54
  -6   3   5    2.06    0.56
  -6   3   6    8.42    0.97
  -6   3   6   10.13    1.06
  -6   3   6    7.66    0.84
  -6   3   6    8.47    0.91
  -6   3   6    8.73    0.93
  -6   4  -7  213.53   11.87
  -6   4  -6   49.47    3.19
  -6   4  -6   52.86    3.82
  -6   4  -5   18.30    1.55
  -6   4  -5   19.26    2.24
  -6   4  -4    5.24    0.82
  -6   4  -4    4.39    1.32
  -6   4  -3   27.18    2.04
  -6   4  -3   27.33    2.16
  -6   4  -3   30.93    2.97
  -6   4  -3   30.24    2.16
  -6   4  -2    0.15    0.45
  -6   4  -2    0.27    0.51
  -6   4  -2   -0.30    0.46
  -6   4  -1    8.67    1.06
  -6   4  -1   11.11    1.22
  -6   4   0   19.95    2.06
  -6   4   0   19.17    1.86
  -6   4   1  300.18   15.74
  -6   4   1  290.47   15.51
  -6   4   1  299.19   15.85
  -6   4   1  280.18   15.65
  -6   4   2  422.66   22.56
  -6   4   2  400.67   22.60
  -6   4   2  395.61   22.35
  -6   4   2  389.07   22.67
  -6   4   3   16.10    1.49
  -6   4   3   20.29    1.59
  -6   4   3   19.07    1.76
  -6   4   3   18.04    1.69
  -6   4   3   16.60    1.65
  -6   4   4  176.12   10.77
  -6   4   4  204.14   10.86
  -6   4   4  186.33   10.98
  -6   4   4  168.54   10.57
  -6   4   4  189.02   10.87
  -6   4   5   27.33    2.10
  -6   4   5   26.25    2.07
  -6   4   5   30.20    2.10
  -6   4   5   31.21    2.26
  -6   4   6    7.62    0.82
  -6   4   6    5.57    0.76
  -6   4   6    6.79    0.79
  -6   4   7    0.35    0.30
  -6   4   7    0.59    0.35
  -6   5  -6    0.77    0.31
  -6   5  -5    9.47    0.94
  -6   5  -4   -0.06    0.43
  -6   5  -3    3.42    0.70
  -6   5  -3    3.21    0.58
  -6   5  -2   10.86    1.21
  -6   5  -2   12.37    1.27
  -6   5  -2   10.88    1.19
  -6   5  -2   11.90    1.04
  -6   5  -1  128.70    7.14
  -6   5  -1  121.16    7.05
  -6   5  -1  102.39    6.87
  -6   5  -1  110.76    6.62
  -6   5   0   16.93    1.47
  -6   5   0   16.59    1.55
  -6   5   0   15.69    1.19
  -6   5   1    8.40    1.00
  -6   5   1    6.03    0.95
  -6   5   1    6.68    0.74
  -6   5   1    6.40    0.83
  -6   5   2    0.83    0.48
  -6   5   2    0.08    0.60
  -6   5   2    0.74    0.36
  -6   5   2    0.61    0.46
  -6   5   3   11.16    1.08
  -6   5   3   11.60    1.29
  -6   5   3    8.92    1.11
  -6   5   3   10.41    1.20
  -6   5   4    4.59    0.69
  -6   5   4    4.80    0.79
  -6   5   4    6.18    0.92
  -6   5   4    5.54    0.73
  -6   5   5   45.88    3.08
  -6   5   5   51.12    3.17
  -6   5   5   48.26    3.09
  -6   5   5   48.39    3.24
  -6   5   6    3.74    0.59
  -6   5   6    3.97    0.58
  -6   5   6    4.42    0.66
  -6   5   7   37.10    2.31
  -6   6  -5    7.36    0.67
  -6   6  -4    0.20    0.31
  -6   6  -3   65.37    4.05
  -6   6  -2    9.55    0.96
  -6   6  -1   76.33    4.53
  -6   6  -1   67.47    4.48
  -6   6   0    5.82    0.85
  -6   6   0    7.08    0.93
  -6   6   0    5.52    0.88
  -6   6   1    0.46    0.47
  -6   6   1    0.22    0.43
  -6   6   1    0.07    0.50
  -6   6   2   21.27    1.65
  -6   6   2   21.95    1.67
  -6   6   3    1.20    0.46
  -6   6   3    1.46    0.53
  -6   6   4   29.37    1.97
  -6   6   4   25.82    1.91
  -6   6   4   23.37    1.71
  -6   6   5    1.01    0.46
  -6   6   5    0.26    0.39
  -6   6   5    1.23    0.34
  -6   6   6    5.19    0.62
  -6   6   6    5.15    0.58
  -6   6   6    4.42    0.50
  -6   6   7   44.55    2.53
  -6   6   7   40.42    2.49
  -6   7  -4    0.07    0.15
  -6   7  -2   18.35    1.30
  -6   7  -2   22.78    1.49
  -6   7  -1    0.66    0.36
  -6   7  -1    0.41    0.36
  -6   7   0    5.77    0.75
  -6   7   0    6.49    0.73
  -6   7   1    3.18    0.60
  -6   7   1    2.03    0.44
  -6   7   2   12.05    1.13
  -6   7   3    0.54    0.39
  -6   7   3    0.63    0.28
  -6   7   4   20.61    1.49
  -6   7   4   23.04    1.57
  -6   7   5   70.42    4.27
  -6   7   5   77.19    4.30
  -6   7   6    1.46    0.25
  -6   7   6    1.66    0.26
  -6   8   0    6.12    0.53
  -6   8   1   30.34    1.92
  -6   8   2   16.17    1.15
  -6   8   3   51.19    3.03
  -6   8   4   22.68    1.40
  -5 -10  -8   16.08    1.18
  -5 -10  -7   11.25    1.01
  -5 -10  -6   11.67    1.07
  -5  -9 -10    7.17    0.68
  -5  -9  -9   29.10    1.92
  -5  -9  -9   23.24    1.58
  -5  -9  -8    3.01    0.70
  -5  -9  -8    2.52    0.46
  -5  -9  -7   17.80    1.59
  -5  -9  -7   15.28    1.23
  -5  -9  -6   99.66    5.87
  -5  -9  -6   95.17    5.49
  -5  -9  -5   48.29    3.16
  -5  -9  -5   41.79    2.76
  -5  -9  -4   13.88    1.48
  -5  -9  -4   13.22    1.17
  -5  -9  -3    0.48    0.98
  -5  -9  -3   -0.08    0.59
  -5  -9  -3    0.53    0.31
  -5  -9  -2   54.09    2.94
  -5  -9  -2   44.80    2.91
  -5  -9  -2   51.18    3.28
  -5  -9  -1    4.67    0.52
  -5  -9  -1    6.62    0.87
  -5  -9   0   12.22    1.06
  -5  -9   0   12.24    1.02
  -5  -8 -11    0.20    0.21
  -5  -8 -11    0.13    0.25
  -5  -8 -10    0.58    0.83
  -5  -8 -10    0.75    0.39
  -5  -8 -10    1.21    0.56
  -5  -8  -9   -0.29    0.89
  -5  -8  -9    0.22    0.46
  -5  -8  -9    0.07    0.54
  -5  -8  -9   -0.40    0.58
  -5  -8  -8    0.87    0.96
  -5  -8  -8    3.32    1.20
  -5  -8  -8    1.77    0.61
  -5  -8  -8    1.85    0.73
  -5  -8  -8    3.54    0.89
  -5  -8  -7   -0.19    1.16
  -5  -8  -7    1.22    0.93
  -5  -8  -7    0.31    0.69
  -5  -8  -7   -0.10    0.70
  -5  -8  -7   -0.14    0.47
  -5  -8  -6    2.41    1.48
  -5  -8  -6    1.42    0.82
  -5  -8  -6    1.85    0.87
  -5  -8  -6    2.63    0.68
  -5  -8  -5    0.70    1.50
  -5  -8  -5    1.64    0.80
  -5  -8  -5    1.24    0.58
  -5  -8  -4   70.00    4.73
  -5  -8  -4   65.57    4.33
  -5  -8  -3    0.93    0.70
  -5  -8  -3    1.12    0.52
  -5  -8  -2   18.54    1.83
  -5  -8  -2   15.10    2.42
  -5  -8  -2   17.18    1.52
  -5  -8  -1    0.36    0.39
  -5  -8  -1    0.35    0.65
  -5  -8  -1    0.38    0.39
  -5  -8   0   18.76    1.48
  -5  -8   0   17.83    1.72
  -5  -8   0   20.31    1.40
  -5  -8   1    6.00    0.85
  -5  -8   2    0.28    0.33
  -5  -7 -12    2.28    0.33
  -5  -7 -11    0.16    0.44
  -5  -7 -11    0.37    0.42
  -5  -7 -11   -0.79    0.65
  -5  -7 -11    0.89    0.77
  -5  -7 -10    8.98    1.62
  -5  -7 -10   12.06    1.34
  -5  -7 -10   10.74    2.99
  -5  -7 -10    9.56    1.14
  -5  -7 -10   11.45    1.21
  -5  -7  -9    1.34    1.71
  -5  -7  -9    2.84    0.87
  -5  -7  -9    2.85    0.82
  -5  -7  -9    3.87    0.81
  -5  -7  -9    3.88    1.37
  -5  -7  -9    2.84    1.19
  -5  -7  -8   61.09    4.05
  -5  -7  -8   49.54    7.37
  -5  -7  -8   73.28    4.48
  -5  -7  -8   58.55    5.14
  -5  -7  -8   53.39    4.70
  -5  -7  -8   62.32    4.30
  -5  -7  -8   42.28    4.37
  -5  -7  -7   12.25    1.42
  -5  -7  -7   10.16    3.28
  -5  -7  -7    7.16    2.67
  -5  -7  -7   10.67    2.91
  -5  -7  -7   15.16    2.33
  -5  -7  -7    9.71    1.50
  -5  -7  -7   14.17    1.64
  -5  -7  -7    7.83    1.90
  -5  -7  -6    9.33    1.24
  -5  -7  -6    5.27    2.39
  -5  -7  -6    8.11    2.56
  -5  -7  -6    5.83    1.66
  -5  -7  -6    5.91    1.87
  -5  -7  -6    9.12    1.41
  -5  -7  -6    8.75    1.39
  -5  -7  -6    7.15    2.47
  -5  -7  -6    7.04    2.42
  -5  -7  -5   20.26    3.76
  -5  -7  -5   19.41    2.49
  -5  -7  -5   19.97    3.76
  -5  -7  -5   19.16    3.79
  -5  -7  -5   17.09    2.94
  -5  -7  -5   22.85    2.22
  -5  -7  -5   20.47    1.91
  -5  -7  -4    0.48    1.21
  -5  -7  -4    0.26    1.46
  -5  -7  -4   -0.96    1.50
  -5  -7  -4   -0.52    1.61
  -5  -7  -4   -0.25    0.71
  -5  -7  -4    0.48    0.71
  -5  -7  -4   -1.43    3.64
  -5  -7  -4   -0.25    0.57
  -5  -7  -3    5.44    2.01
  -5  -7  -3    2.01    1.58
  -5  -7  -3    5.05    1.98
  -5  -7  -3    6.49    0.98
  -5  -7  -3    1.48    3.09
  -5  -7  -3    3.48    1.06
  -5  -7  -3    5.24    1.08
  -5  -7  -2   -0.97    1.33
  -5  -7  -2    0.26    1.41
  -5  -7  -2    0.11    0.69
  -5  -7  -2    0.47    0.48
  -5  -7  -1    2.94    1.51
  -5  -7  -1    2.62    0.88
  -5  -7  -1    2.82    0.72
  -5  -7   0   33.43    2.38
  -5  -7   0   33.22    2.71
  -5  -7   0   26.85    3.17
  -5  -7   0   31.45    2.36
  -5  -7   1    2.27    0.80
  -5  -7   1    2.79    0.53
  -5  -7   1    3.59    0.65
  -5  -7   2   41.93    2.66
  -5  -7   2   49.34    3.17
  -5  -7   3   77.37    4.39
  -5  -7   3   65.70    4.37
  -5  -7   4    3.63    0.41
  -5  -6 -12   11.88    1.03
  -5  -6 -11    0.60    0.80
  -5  -6 -11   -0.27    0.82
  -5  -6 -10   -0.41    0.74
  -5  -6 -10    0.52    0.58
  -5  -6 -10    0.79    1.03
  -5  -6 -10   -0.38    1.08
  -5  -6  -9   40.70    7.32
  -5  -6  -9   43.92    4.18
  -5  -6  -9   47.63    4.76
  -5  -6  -8    1.58    1.50
  -5  -6  -8    2.59    1.25
  -5  -6  -8    4.26    2.07
  -5  -6  -8    1.61    1.67
  -5  -6  -8    1.80    1.07
  -5  -6  -8   -0.88    2.42
  -5  -6  -8    1.34    0.88
  -5  -6  -7   36.02    7.94
  -5  -6  -7   57.15    6.57
  -5  -6  -7   41.22    4.19
  -5  -6  -7   42.55    4.27
  -5  -6  -7   47.43    4.65
  -5  -6  -7   55.37    6.49
  -5  -6  -7   41.72    7.25
  -5  -6  -7   39.75    4.19
  -5  -6  -6   34.67    4.16
  -5  -6  -6   41.07    8.57
  -5  -6  -6   47.41    6.09
  -5  -6  -6   40.40    3.99
  -5  -6  -6   50.84    4.66
  -5  -6  -6   50.37    6.22
  -5  -6  -6   46.81    6.08
  -5  -6  -6   38.30    6.63
  -5  -6  -6   45.93    3.41
  -5  -6  -6   52.70    3.78
  -5  -6  -5   28.07    2.55
  -5  -6  -5   25.46    1.91
  -5  -6  -5   23.21    7.08
  -5  -6  -5   25.79    4.29
  -5  -6  -5   23.61    3.01
  -5  -6  -5   26.40    4.43
  -5  -6  -5   24.96    4.38
  -5  -6  -5   19.23    4.27
  -5  -6  -5   24.89    2.24
  -5  -6  -5   23.25    3.26
  -5  -6  -4   33.73    2.39
  -5  -6  -4   42.00    3.10
  -5  -6  -4   18.33    6.47
  -5  -6  -4   30.94    4.79
  -5  -6  -4   29.72    3.24
  -5  -6  -4   27.94    4.59
  -5  -6  -4   28.28    4.58
  -5  -6  -4   25.58    3.59
  -5  -6  -4   39.07    2.80
  -5  -6  -4   32.45    2.90
  -5  -6  -3   76.90    5.21
  -5  -6  -3   73.77    4.61
  -5  -6  -3   74.24    5.14
  -5  -6  -3   59.67    7.28
  -5  -6  -3   68.92    7.37
  -5  -6  -3   69.27    7.45
  -5  -6  -3   79.19    4.95
  -5  -6  -2  112.99   16.70
  -5  -6  -2  145.56   11.42
  -5  -6  -2  129.22   11.14
  -5  -6  -2  115.76    8.32
  -5  -6  -2  132.34    7.99
  -5  -6  -2  137.50   11.51
  -5  -6  -2  127.17    9.85
  -5  -6  -2  159.46    8.78
  -5  -6  -2  155.58    8.38
  -5  -6  -1   45.45    3.06
  -5  -6  -1   34.94    3.00
  -5  -6  -1   47.51    3.42
  -5  -6  -1   37.17    8.63
  -5  -6  -1   36.72    4.25
  -5  -6   0   46.40    8.87
  -5  -6   0   51.94    3.68
  -5  -6   0   47.58    3.14
  -5  -6   0   49.20    3.30
  -5  -6   1    4.38    0.98
  -5  -6   1    4.17    0.76
  -5  -6   1    1.86    1.12
  -5  -6   1    4.23    0.73
  -5  -6   1    3.98    0.70
  -5  -6   2   84.03    5.29
  -5  -6   2   99.09    5.28
  -5  -6   2   92.86    5.70
  -5  -6   3    3.61    0.51
  -5  -6   3    3.73    0.83
  -5  -6   4    1.59    0.48
  -5  -6   4    0.88    0.49
  -5  -6   5    7.49    0.68
  -5  -5 -12   43.55    3.32
  -5  -5 -11    7.59    1.42
  -5  -5 -11    7.04    1.38
  -5  -5 -10    8.85    1.65
  -5  -5 -10   12.29    3.79
  -5  -5 -10    7.47    2.87
  -5  -5 -10    9.13    1.95
  -5  -5 -10   14.86    2.27
  -5  -5 -10    8.76    1.72
  -5  -5  -9   16.21    2.67
  -5  -5  -9   17.79    2.45
  -5  -5  -9   22.15    2.99
  -5  -5  -9   17.01    2.35
  -5  -5  -9   16.37    4.18
  -5  -5  -9   20.12    3.75
  -5  -5  -9   19.52    3.70
  -5  -5  -9   17.33    2.53
  -5  -5  -9   16.59    1.47
  -5  -5  -8    3.55    1.31
  -5  -5  -8    4.97    1.79
  -5  -5  -8    7.87    2.17
  -5  -5  -8    3.38    1.22
  -5  -5  -8    6.66    3.44
  -5  -5  -8    6.07    1.71
  -5  -5  -8    5.89    2.38
  -5  -5  -8    6.65    0.80
  -5  -5  -8    5.89    0.82
  -5  -5  -8    3.73    2.30
  -5  -5  -8    7.10    1.69
  -5  -5  -7   23.95    1.74
  -5  -5  -7   21.57    1.74
  -5  -5  -7   21.17    4.04
  -5  -5  -7   18.82    2.77
  -5  -5  -7   22.08    3.02
  -5  -5  -7   23.93    3.25
  -5  -5  -7   24.47    4.21
  -5  -5  -7   16.07    2.56
  -5  -5  -7   17.57    5.11
  -5  -5  -7   19.96    2.67
  -5  -5  -7   18.98    2.37
  -5  -5  -6   27.25    1.88
  -5  -5  -6   22.23    1.81
  -5  -5  -6   25.25    3.09
  -5  -5  -6   22.26    4.01
  -5  -5  -6   19.36    2.81
  -5  -5  -6   22.77    3.23
  -5  -5  -6   16.06    5.72
  -5  -5  -6   24.93    4.24
  -5  -5  -6   26.98    4.33
  -5  -5  -6   19.04    2.85
  -5  -5  -6   14.41    4.39
  -5  -5  -6   18.27    2.22
  -5  -5  -5    1.14    0.80
  -5  -5  -5    1.23    0.49
  -5  -5  -5   -1.25    3.43
  -5  -5  -5    0.24    0.79
  -5  -5  -5    3.84    1.86
  -5  -5  -5    1.17    1.53
  -5  -5  -5    1.09    0.93
  -5  -5  -5    2.90    1.74
  -5  -5  -5    1.43    1.48
  -5  -5  -5   -0.74    2.03
  -5  -5  -5    3.09    1.69
  -5  -5  -4   89.41    5.24
  -5  -5  -4   66.39   12.01
  -5  -5  -4   96.39    8.53
  -5  -5  -4   76.50    6.33
  -5  -5  -4   92.71    5.80
  -5  -5  -4   85.51    8.23
  -5  -5  -4   88.86    8.39
  -5  -5  -4   82.70    5.51
  -5  -5  -4   69.09    6.50
  -5  -5  -3   47.13    3.14
  -5  -5  -3   45.23    9.36
  -5  -5  -3   46.94    5.61
  -5  -5  -3   46.20    4.03
  -5  -5  -3   35.99    5.22
  -5  -5  -3   47.00    5.71
  -5  -5  -3   35.72    4.35
  -5  -5  -3   54.48    3.73
  -5  -5  -3   51.87    3.48
  -5  -5  -2   61.93   11.31
  -5  -5  -2   58.73    6.42
  -5  -5  -2   64.13    6.66
  -5  -5  -2   64.20    4.01
  -5  -5  -2   64.66    4.41
  -5  -5  -2   48.35    6.07
  -5  -5  -2   53.43    5.48
  -5  -5  -2   65.65    4.48
  -5  -5  -2   64.70    4.25
  -5  -5  -1    0.49    0.47
  -5  -5  -1    0.06    0.40
  -5  -5  -1   -0.09    0.52
  -5  -5  -1    0.22    0.71
  -5  -5  -1   -0.25    1.35
  -5  -5  -1   -0.45    0.70
  -5  -5  -1    0.45    0.47
  -5  -5   0   26.59    2.02
  -5  -5   0   21.14    1.75
  -5  -5   0   19.17    1.87
  -5  -5   0   22.05    2.17
  -5  -5   0   27.55    1.95
  -5  -5   0   16.08    2.78
  -5  -5   0   26.36    6.76
  -5  -5   1   33.27    2.48
  -5  -5   1   30.41    6.88
  -5  -5   1   36.25    2.45
  -5  -5   1   32.09    2.77
  -5  -5   2   35.18    2.52
  -5  -5   2   33.57    2.49
  -5  -5   2   30.72    2.75
  -5  -5   2   32.50    2.50
  -5  -5   3   13.99    1.26
  -5  -5   3   17.15    1.72
  -5  -5   3   14.29    1.61
  -5  -5   3   11.19    1.25
  -5  -5   3   13.23    1.33
  -5  -5   4   20.66    1.70
  -5  -5   4   22.85    1.97
  -5  -5   5    0.60    0.41
  -5  -5   6   18.57    1.28
  -5  -4 -12    6.28    1.05
  -5  -4 -12    6.59    1.10
  -5  -4 -11   16.44    2.18
  -5  -4 -11   16.11    1.91
  -5  -4 -11   18.18    2.23
  -5  -4 -11   14.22    3.51
  -5  -4 -10    0.38    1.11
  -5  -4 -10    0.40    0.96
  -5  -4 -10    1.46    1.69
  -5  -4 -10    0.56    0.90
  -5  -4 -10    0.80    0.44
  -5  -4 -10   -0.19    0.98
  -5  -4  -9   60.28    5.01
  -5  -4  -9   59.89    5.08
  -5  -4  -9   56.40    5.20
  -5  -4  -9   52.95    3.38
  -5  -4  -9   55.81    3.51
  -5  -4  -9   46.62    6.10
  -5  -4  -9   39.69    4.29
  -5  -4  -9   48.41    7.72
  -5  -4  -9   56.96    8.16
  -5  -4  -9   46.45    6.11
  -5  -4  -9   54.33    5.16
  -5  -4  -8    1.71    1.11
  -5  -4  -8    1.01    1.49
  -5  -4  -8    3.24    1.71
  -5  -4  -8    1.75    1.27
  -5  -4  -8    2.29    1.46
  -5  -4  -8    3.92    0.62
  -5  -4  -8    2.48    0.57
  -5  -4  -8    0.51    1.83
  -5  -4  -8    1.78    1.05
  -5  -4  -8    3.31    1.26
  -5  -4  -8    4.67    2.69
  -5  -4  -8    3.61    2.96
  -5  -4  -8    1.51    0.79
  -5  -4  -7    5.39    1.39
  -5  -4  -7    7.38    2.74
  -5  -4  -7   10.13    1.98
  -5  -4  -7    9.93    2.11
  -5  -4  -7   12.28    1.96
  -5  -4  -7    8.96    2.11
  -5  -4  -7    8.00    0.89
  -5  -4  -7    9.62    1.01
  -5  -4  -7    7.65    2.03
  -5  -4  -7    4.94    2.34
  -5  -4  -7    5.46    2.50
  -5  -4  -7    6.63    1.56
  -5  -4  -7    8.16    1.59
  -5  -4  -6    0.21    0.61
  -5  -4  -6    0.37    0.36
  -5  -4  -6    1.03    0.93
  -5  -4  -6    0.46    1.45
  -5  -4  -6    0.48    0.78
  -5  -4  -6    0.92    1.21
  -5  -4  -6    2.01    2.77
  -5  -4  -6    0.33    0.77
  -5  -4  -6    0.47    1.28
  -5  -4  -6    0.58    1.24
  -5  -4  -6   -0.49    1.00
  -5  -4  -6    0.86    2.51
  -5  -4  -5   40.68    3.80
  -5  -4  -5   45.79    5.25
  -5  -4  -5   35.02    3.50
  -5  -4  -5   33.00    3.59
  -5  -4  -5   21.80    6.33
  -5  -4  -5   35.09    4.76
  -5  -4  -5   25.21    3.26
  -5  -4  -5   27.42    2.74
  -5  -4  -5   30.41    5.89
  -5  -4  -4   12.40    1.14
  -5  -4  -4   10.91    1.07
  -5  -4  -4    8.99    4.56
  -5  -4  -4   16.80    3.18
  -5  -4  -4   12.73    2.13
  -5  -4  -4    9.18    1.62
  -5  -4  -4   10.92    2.00
  -5  -4  -4    7.84    2.35
  -5  -4  -4   10.99    3.54
  -5  -4  -4   10.31    2.06
  -5  -4  -3    2.29    3.36
  -5  -4  -3   -0.39    1.27
  -5  -4  -3   -0.18    0.98
  -5  -4  -3    0.22    1.34
  -5  -4  -3   -0.39    1.35
  -5  -4  -3    0.34    0.94
  -5  -4  -3    0.42    0.62
  -5  -4  -3    0.11    0.39
  -5  -4  -3    0.10    0.27
  -5  -4  -2    0.38    1.03
  -5  -4  -2    1.16    0.84
  -5  -4  -2   -0.33    0.77
  -5  -4  -2    1.90    1.31
  -5  -4  -2    1.55    0.62
  -5  -4  -2    0.77    0.45
  -5  -4  -1   32.71    4.33
  -5  -4  -1   27.13    3.93
  -5  -4  -1   23.45    3.39
  -5  -4  -1   31.14    2.61
  -5  -4  -1   36.55    2.58
  -5  -4  -1   35.67    3.75
  -5  -4  -1   22.68    6.44
  -5  -4  -1   31.92    2.30
  -5  -4  -1   35.07    2.58
  -5  -4   0   -0.22    1.36
  -5  -4   0    0.68    0.49
  -5  -4   0    0.49    0.51
  -5  -4   0    0.17    0.37
  -5  -4   0    0.20    0.60
  -5  -4   0   -1.17    2.42
  -5  -4   0    0.23    0.69
  -5  -4   1    0.74    0.63
  -5  -4   1    0.97    0.42
  -5  -4   1    1.61    1.20
  -5  -4   1    0.67    0.77
  -5  -4   1    2.15    3.16
  -5  -4   1    2.46    0.63
  -5  -4   1    2.09    0.50
  -5  -4   2   18.38    2.39
  -5  -4   2   19.86    1.73
  -5  -4   2   19.79    1.67
  -5  -4   2   18.25    1.88
  -5  -4   2   19.78    1.54
  -5  -4   3    6.56    1.17
  -5  -4   3    5.96    0.86
  -5  -4   3    4.54    0.75
  -5  -4   3    5.08    0.79
  -5  -4   3    4.42    0.82
  -5  -4   3    4.57    1.03
  -5  -4   4   10.80    1.08
  -5  -4   4   11.28    1.40
  -5  -4   4   10.02    1.10
  -5  -4   4    9.70    1.15
  -5  -4   5    0.52    0.45
  -5  -4   5    0.47    0.39
  -5  -4   6   20.86    1.62
  -5  -4   7   42.52    2.55
  -5  -3 -12    2.46    0.75
  -5  -3 -11    2.89    1.06
  -5  -3 -11   -0.15    0.80
  -5  -3 -11    1.40    0.35
  -5  -3 -11    1.58    1.00
  -5  -3 -10    1.29    2.01
  -5  -3 -10    2.31    2.41
  -5  -3 -10    4.80    1.50
  -5  -3 -10    2.79    1.09
  -5  -3 -10    2.73    1.32
  -5  -3 -10    3.73    1.09
  -5  -3 -10    3.72    0.59
  -5  -3 -10    3.71    0.61
  -5  -3 -10    3.76    1.43
  -5  -3  -9   37.59    3.84
  -5  -3  -9   34.97    4.02
  -5  -3  -9   35.06    4.99
  -5  -3  -9   34.65    3.79
  -5  -3  -9   34.32    3.63
  -5  -3  -9   36.02    2.46
  -5  -3  -9   37.22    2.55
  -5  -3  -9   35.01    4.30
  -5  -3  -9   25.79    4.53
  -5  -3  -9   36.93    6.16
  -5  -3  -9   31.91    3.51
  -5  -3  -9   31.77    6.34
  -5  -3  -9   36.85    3.74
  -5  -3  -8    0.90    1.03
  -5  -3  -8   -0.94    1.53
  -5  -3  -8    1.34    1.62
  -5  -3  -8    0.71    1.33
  -5  -3  -8   -0.47    1.22
  -5  -3  -8    0.12    0.33
  -5  -3  -8    0.07    0.36
  -5  -3  -8   -0.71    0.97
  -5  -3  -8   -0.94    1.69
  -5  -3  -8   -1.71    2.17
  -5  -3  -8    0.85    2.16
  -5  -3  -8   -0.64    1.16
  -5  -3  -8    0.97    0.80
  -5  -3  -7   29.56    3.48
  -5  -3  -7   20.51    3.84
  -5  -3  -7   25.67    3.05
  -5  -3  -7   29.08    3.48
  -5  -3  -7   26.10    3.25
  -5  -3  -7   25.93    1.93
  -5  -3  -7   27.68    2.01
  -5  -3  -7   25.50    4.13
  -5  -3  -7   23.60    3.44
  -5  -3  -7   35.79    6.08
  -5  -3  -7   19.41    2.71
  -5  -3  -7   19.39    4.99
  -5  -3  -7   23.67    2.93
  -5  -3  -6    5.27    1.38
  -5  -3  -6    3.35    2.90
  -5  -3  -6    7.02    1.65
  -5  -3  -6    3.32    2.09
  -5  -3  -6    7.90    1.82
  -5  -3  -6    5.81    1.43
  -5  -3  -6    7.82    1.99
  -5  -3  -6    5.41    0.71
  -5  -3  -6    4.92    0.72
  -5  -3  -6    6.25    2.31
  -5  -3  -6    8.14    1.83
  -5  -3  -6    5.91    1.43
  -5  -3  -6    5.07    2.48
  -5  -3  -6    3.07    1.24
  -5  -3  -5   17.78    2.31
  -5  -3  -5   11.18    4.42
  -5  -3  -5   19.32    2.64
  -5  -3  -5   17.73    3.13
  -5  -3  -5   17.46    2.04
  -5  -3  -5   17.67    2.44
  -5  -3  -5   16.39    1.36
  -5  -3  -5   17.43    3.09
  -5  -3  -5   11.01    2.82
  -5  -3  -5   17.64    2.04
  -5  -3  -5   17.76    4.50
  -5  -3  -5   15.44    2.24
  -5  -3  -4  175.79   11.61
  -5  -3  -4  156.12   10.21
  -5  -3  -4  142.80    9.56
  -5  -3  -4  147.00    9.91
  -5  -3  -4  141.03   15.26
  -5  -3  -4  181.60   11.77
  -5  -3  -4  149.61    9.87
  -5  -3  -4  121.26    9.54
  -5  -3  -3    5.62    1.43
  -5  -3  -3    7.11    1.50
  -5  -3  -3    8.33    2.07
  -5  -3  -3    5.01    1.59
  -5  -3  -3    3.00    3.30
  -5  -3  -3    8.39    2.12
  -5  -3  -2  410.50   22.57
  -5  -3  -2  394.69   22.49
  -5  -3  -1   27.58    3.50
  -5  -3  -1   18.89    2.98
  -5  -3  -1   22.74    2.30
  -5  -3  -1   16.87    5.39
  -5  -3  -1   19.04    2.73
  -5  -3  -1   24.38    1.76
  -5  -3   0    8.98    1.10
  -5  -3   0    6.27    3.79
  -5  -3   0    9.44    1.88
  -5  -3   0    6.56    1.74
  -5  -3   1    3.36    1.42
  -5  -3   1    6.80    0.82
  -5  -3   1    5.55    1.51
  -5  -3   1    6.32    0.98
  -5  -3   1    6.92    0.97
  -5  -3   2   78.23    4.56
  -5  -3   2   82.88    4.74
  -5  -3   2   58.37    4.71
  -5  -3   2   72.38    5.94
  -5  -3   2   54.87    8.61
  -5  -3   2   73.63    4.74
  -5  -3   2   76.81    4.98
  -5  -3   2   68.35    4.69
  -5  -3   3   18.20    1.58
  -5  -3   3   12.88    1.58
  -5  -3   3   15.38    1.44
  -5  -3   3   15.94    1.41
  -5  -3   3   12.76    2.13
  -5  -3   3   15.46    1.53
  -5  -3   3   15.90    1.51
  -5  -3   3   17.11    1.79
  -5  -3   4  205.72   13.53
  -5  -3   4  240.89   13.59
  -5  -3   4  246.59   13.58
  -5  -3   4  227.18   13.81
  -5  -3   4  232.17   13.44
  -5  -3   4  273.60   14.06
  -5  -3   4  244.28   13.56
  -5  -3   5    0.88    0.48
  -5  -3   5    0.67    0.55
  -5  -3   5    1.32    0.48
  -5  -3   6   10.71    1.06
  -5  -3   6   11.30    1.22
  -5  -3   7    6.93    0.69
  -5  -3   7    7.30    0.79
  -5  -2 -11   28.16    2.73
  -5  -2 -11   23.77    1.69
  -5  -2 -10   34.58    3.54
  -5  -2 -10   37.19    3.71
  -5  -2 -10   33.28    3.06
  -5  -2 -10   34.73    3.68
  -5  -2 -10   33.52    5.65
  -5  -2 -10   37.97    2.51
  -5  -2 -10   39.94    2.55
  -5  -2 -10   31.88    3.61
  -5  -2  -9  251.34   15.05
  -5  -2  -9  201.21   14.06
  -5  -2  -9  240.13   14.92
  -5  -2  -9  213.65   14.61
  -5  -2  -9  251.67   15.66
  -5  -2  -9  219.90   13.09
  -5  -2  -9  252.81   13.21
  -5  -2  -9  214.43   19.30
  -5  -2  -9  207.56   18.38
  -5  -2  -8    0.48    1.35
  -5  -2  -8    0.42    1.64
  -5  -2  -8   -0.31    1.07
  -5  -2  -8    0.96    1.22
  -5  -2  -8    0.49    1.29
  -5  -2  -8    1.06    1.12
  -5  -2  -8   -0.36    0.82
  -5  -2  -8    2.12    1.64
  -5  -2  -8   -0.88    2.58
  -5  -2  -8    0.64    1.12
  -5  -2  -8    2.93    2.15
  -5  -2  -8    1.03    0.42
  -5  -2  -7   -0.12    0.34
  -5  -2  -7   -0.22    1.11
  -5  -2  -7   -0.29    1.04
  -5  -2  -7   -0.40    1.30
  -5  -2  -7    0.40    0.55
  -5  -2  -7   -0.89    1.06
  -5  -2  -7   -0.22    1.17
  -5  -2  -7   -0.40    1.37
  -5  -2  -7    0.67    0.85
  -5  -2  -7    0.81    1.87
  -5  -2  -7    0.20    0.93
  -5  -2  -7   -1.29    1.89
  -5  -2  -7   -0.50    0.87
  -5  -2  -7    0.09    0.31
  -5  -2  -6  163.60    9.69
  -5  -2  -6  189.71   11.12
  -5  -2  -6  178.38   11.09
  -5  -2  -6  150.49   12.15
  -5  -2  -6  184.66   11.84
  -5  -2  -6  152.55   14.39
  -5  -2  -6  148.68   10.79
  -5  -2  -6  153.93   12.22
  -5  -2  -6  177.89   11.11
  -5  -2  -6  175.93   11.40
  -5  -2  -6  183.36   11.34
  -5  -2  -6  182.54   11.51
  -5  -2  -6  138.12   13.96
  -5  -2  -5   14.43    2.09
  -5  -2  -5   11.89    3.92
  -5  -2  -5   14.56    2.33
  -5  -2  -5   12.96    2.65
  -5  -2  -5   16.06    2.26
  -5  -2  -5   11.98    1.85
  -5  -2  -5   14.12    2.13
  -5  -2  -5   13.52    1.16
  -5  -2  -5   12.01    2.66
  -5  -2  -5   14.13    2.46
  -5  -2  -5    8.69    1.76
  -5  -2  -5   11.63    3.28
  -5  -2  -4  225.47   19.86
  -5  -2  -4  223.57   14.15
  -5  -2  -4  249.23   14.75
  -5  -2  -4  282.06   16.26
  -5  -2  -4  266.38   16.13
  -5  -2  -4  278.13   15.85
  -5  -2  -4  195.87   14.40
  -5  -2  -4  258.56   15.11
  -5  -2  -3    2.62    2.60
  -5  -2  -3    9.33    1.66
  -5  -2  -3    7.52    1.42
  -5  -2  -3   13.12    2.16
  -5  -2  -3    8.36    1.76
  -5  -2  -3   10.26    2.03
  -5  -2  -3    5.21    1.47
  -5  -2  -3    9.22    1.58
  -5  -2  -2    0.74    0.81
  -5  -2  -2   -0.51    1.10
  -5  -2  -2    0.75    0.91
  -5  -2  -2    2.65    3.04
  -5  -2  -2    0.99    0.89
  -5  -2  -1  283.25   16.49
  -5  -2  -1  315.55   17.70
  -5  -2  -1  293.90   17.57
  -5  -2  -1  232.65   21.98
  -5  -2  -1  250.47   16.80
  -5  -2   0  112.99    8.48
  -5  -2   0  126.82    8.00
  -5  -2   0  118.51   13.57
  -5  -2   1   47.56    3.26
  -5  -2   1   38.80    7.21
  -5  -2   1   48.33    4.60
  -5  -2   1   54.45    3.19
  -5  -2   1   33.26    3.84
  -5  -2   2    2.19    1.54
  -5  -2   2    4.48    1.41
  -5  -2   2    2.38    2.62
  -5  -2   2    5.14    0.81
  -5  -2   2    4.63    0.87
  -5  -2   2    4.69    0.68
  -5  -2   3   34.49    2.62
  -5  -2   3   42.54    2.95
  -5  -2   3   37.66    3.87
  -5  -2   3   31.54    2.56
  -5  -2   3   39.58    2.59
  -5  -2   3   30.69    2.48
  -5  -2   3   30.87    2.67
  -5  -2   3   40.34    2.49
  -5  -2   4   42.36    2.94
  -5  -2   4   44.43    3.22
  -5  -2   4   42.83    4.20
  -5  -2   4   42.71    2.74
  -5  -2   4   36.17    2.90
  -5  -2   4   39.93    2.93
  -5  -2   4   45.79    2.91
  -5  -2   4   32.72    2.96
  -5  -2   4   45.74    2.81
  -5  -2   5  381.23   20.82
  -5  -2   5  348.96   20.77
  -5  -2   5  354.71   20.66
  -5  -2   5  371.73   20.54
  -5  -2   5  404.26   21.14
  -5  -2   6   44.27    3.25
  -5  -2   6   50.58    3.41
  -5  -2   7    5.55    0.79
  -5  -2   7    4.90    0.68
  -5  -2   8   -0.10    0.29
  -5  -2   8    0.31    0.24
  -5  -1 -12    0.28    0.15
  -5  -1 -11   19.60    1.40
  -5  -1 -11   16.54    2.09
  -5  -1 -10   96.87    5.80
  -5  -1 -10  104.39    5.80
  -5  -1 -10   93.58    5.62
  -5  -1 -10  101.45    7.21
  -5  -1  -9   18.88    2.76
  -5  -1  -9   15.78    2.58
  -5  -1  -9   19.38    3.00
  -5  -1  -9   16.50    2.00
  -5  -1  -9   15.41    2.36
  -5  -1  -9   14.23    3.99
  -5  -1  -9   17.43    1.37
  -5  -1  -9   16.87    1.47
  -5  -1  -8    2.98    1.59
  -5  -1  -8    0.23    0.53
  -5  -1  -8    1.00    1.10
  -5  -1  -8    0.89    0.96
  -5  -1  -8    1.18    1.21
  -5  -1  -8    0.69    1.27
  -5  -1  -8    0.36    0.75
  -5  -1  -8    0.88    2.41
  -5  -1  -8   -0.77    1.59
  -5  -1  -8    1.04    0.42
  -5  -1  -8    0.25    0.49
  -5  -1  -7   45.06    4.48
  -5  -1  -7   56.18    5.39
  -5  -1  -7   45.07    4.35
  -5  -1  -7   55.30    4.71
  -5  -1  -7   41.95    4.21
  -5  -1  -7   51.61    4.68
  -5  -1  -7   45.69    7.43
  -5  -1  -7   52.99    7.17
  -5  -1  -7   48.53    3.14
  -5  -1  -7   48.17    3.23
  -5  -1  -6    4.72    0.67
  -5  -1  -6    3.97    1.38
  -5  -1  -6    3.40    1.55
  -5  -1  -6    2.60    1.03
  -5  -1  -6    2.58    1.35
  -5  -1  -6    2.82    1.24
  -5  -1  -6    5.34    1.44
  -5  -1  -6    4.85    1.51
  -5  -1  -6    4.65    1.80
  -5  -1  -6    1.46    1.86
  -5  -1  -6    2.88    1.99
  -5  -1  -6    3.58    0.56
  -5  -1  -6    0.56    1.85
  -5  -1  -5   20.18    2.60
  -5  -1  -5   21.24    2.42
  -5  -1  -5   22.81    2.95
  -5  -1  -5   24.60    2.67
  -5  -1  -5   15.13    2.62
  -5  -1  -5   19.66    2.41
  -5  -1  -5   17.91    2.41
  -5  -1  -5   20.75    2.60
  -5  -1  -5   17.44    4.20
  -5  -1  -5   17.90    2.83
  -5  -1  -5   18.46    2.78
  -5  -1  -5   20.23    1.54
  -5  -1  -5   14.82    2.36
  -5  -1  -4  204.32   12.66
  -5  -1  -4  189.08   12.24
  -5  -1  -4  195.12   12.53
  -5  -1  -4  232.29   13.43
  -5  -1  -4  197.41   13.10
  -5  -1  -4  214.22   12.91
  -5  -1  -4  221.95   13.56
  -5  -1  -4  190.15   13.03
  -5  -1  -4  205.65   12.98
  -5  -1  -4  153.30   15.95
  -5  -1  -3    1.55    2.90
  -5  -1  -3    2.42    1.00
  -5  -1  -3    3.76    1.05
  -5  -1  -3    7.36    1.51
  -5  -1  -3    5.68    1.27
  -5  -1  -3    3.12    1.05
  -5  -1  -3    2.67    1.12
  -5  -1  -3    3.20    1.00
  -5  -1  -2    1.58    2.32
  -5  -1  -2    1.01    1.00
  -5  -1  -2    1.19    0.77
  -5  -1  -2    0.32    0.49
  -5  -1  -2    0.18    0.56
  -5  -1  -2    0.81    0.67
  -5  -1  -2    1.76    0.76
  -5  -1  -2    0.45    0.94
  -5  -1  -1  102.33    6.85
  -5  -1   0   58.26    4.89
  -5  -1   0   48.78    7.58
  -5  -1   0   44.70    3.66
  -5  -1   1   32.58    3.64
  -5  -1   1   29.02    5.88
  -5  -1   1   37.65    3.81
  -5  -1   2   41.12    2.90
  -5  -1   2   43.30    2.99
  -5  -1   2   34.50    3.81
  -5  -1   2   45.30    4.29
  -5  -1   2   43.49    2.75
  -5  -1   2   42.92    2.71
  -5  -1   2   41.07    2.66
  -5  -1   2   39.96    2.74
  -5  -1   3    1.04    0.57
  -5  -1   3    1.85    0.61
  -5  -1   3    1.07    0.46
  -5  -1   3    1.19    0.57
  -5  -1   3   -1.22    2.54
  -5  -1   3    0.51    0.89
  -5  -1   3    0.87    0.41
  -5  -1   3    2.36    0.49
  -5  -1   3    1.70    0.55
  -5  -1   3    0.66    1.10
  -5  -1   4  203.60   11.98
  -5  -1   4  213.77   11.68
  -5  -1   4  190.85   11.58
  -5  -1   4  201.97   13.53
  -5  -1   4  221.28   11.90
  -5  -1   4  185.86   11.71
  -5  -1   4  214.31   11.75
  -5  -1   5   11.80    1.38
  -5  -1   5   10.38    1.07
  -5  -1   5   10.49    1.12
  -5  -1   5    8.61    1.11
  -5  -1   5   11.34    1.23
  -5  -1   5    8.77    1.00
  -5  -1   5    8.57    1.81
  -5  -1   6    0.84    0.40
  -5  -1   6    0.07    0.42
  -5  -1   6   -0.07    0.48
  -5  -1   7   53.18    3.12
  -5  -1   7   54.82    3.30
  -5  -1   8    0.86    0.36
  -5  -1   8    1.31    0.45
  -5   0 -11    3.27    0.46
  -5   0 -10    2.96    0.49
  -5   0 -10    2.40    0.54
  -5   0 -10    3.55    0.53
  -5   0 -10    3.65    1.21
  -5   0 -10    4.18    1.43
  -5   0  -9    0.76    1.05
  -5   0  -9    2.19    0.48
  -5   0  -9   -0.71    1.80
  -5   0  -9    1.15    0.50
  -5   0  -9    1.77    1.49
  -5   0  -9    0.45    1.25
  -5   0  -8    5.57    1.64
  -5   0  -8    3.08    1.14
  -5   0  -8    1.91    0.92
  -5   0  -8    0.77    2.11
  -5   0  -8    3.42    1.53
  -5   0  -8    2.67    1.48
  -5   0  -8    2.35    0.54
  -5   0  -7    1.29    0.85
  -5   0  -7    0.95    0.99
  -5   0  -7   -0.16    0.93
  -5   0  -7    1.09    1.16
  -5   0  -7    0.90    1.14
  -5   0  -7    0.74    1.02
  -5   0  -7    0.73    1.86
  -5   0  -7   -0.48    1.24
  -5   0  -7    0.23    1.36
  -5   0  -7    0.46    0.42
  -5   0  -6   -0.25    0.67
  -5   0  -6    0.29    1.09
  -5   0  -6    0.17    1.01
  -5   0  -6    0.21    1.18
  -5   0  -6   -0.21    1.15
  -5   0  -6    0.67    0.98
  -5   0  -6    0.63    1.31
  -5   0  -6    0.28    0.37
  -5   0  -6   -1.19    1.45
  -5   0  -6   -0.64    1.18
  -5   0  -5   17.91    4.05
  -5   0  -5   18.07    1.49
  -5   0  -5   23.39    2.60
  -5   0  -5   17.87    2.43
  -5   0  -5   17.01    2.67
  -5   0  -5   15.62    2.19
  -5   0  -5   18.62    2.39
  -5   0  -5   19.10    2.80
  -5   0  -5   12.57    3.15
  -5   0  -5   17.76    2.27
  -5   0  -5   17.51    1.43
  -5   0  -4   14.12    2.14
  -5   0  -4   17.59    2.44
  -5   0  -4   14.19    1.94
  -5   0  -4   15.19    2.02
  -5   0  -4   20.96    4.43
  -5   0  -4   12.92    2.18
  -5   0  -4   12.75    1.86
  -5   0  -4   18.19    2.57
  -5   0  -3  179.44   11.55
  -5   0  -3  170.29   11.97
  -5   0  -3  199.71   12.38
  -5   0  -3  209.08   12.30
  -5   0  -3  170.91   15.48
  -5   0  -3  195.99   12.42
  -5   0  -2    0.76    0.56
  -5   0  -2    3.67    1.14
  -5   0  -2   -0.72    1.97
  -5   0  -2    0.19    0.82
  -5   0  -2    0.79    1.38
  -5   0  -1   28.83    2.54
  -5   0  -1   25.09    5.12
  -5   0  -1   28.57    2.66
  -5   0  -1   28.78    3.00
  -5   0  -1   29.09    3.35
  -5   0   0   66.58    4.69
  -5   0   0   57.22    8.00
  -5   0   0   78.73    6.00
  -5   0   0   61.51    4.30
  -5   0   0   61.30    5.30
  -5   0   1  166.07   14.81
  -5   0   1  165.30   10.93
  -5   0   2   67.52    5.86
  -5   0   2   80.20    4.78
  -5   0   2   90.87    5.03
  -5   0   2   80.06    4.77
  -5   0   2   69.43    8.62
  -5   0   2   79.17    4.86
  -5   0   2   74.03    4.86
  -5   0   3    5.77    0.91
  -5   0   3    5.95    0.81
  -5   0   3    4.67    0.77
  -5   0   3    5.32    1.44
  -5   0   3    5.50    0.77
  -5   0   3    5.94    0.69
  -5   0   3    6.12    0.75
  -5   0   3    6.11    1.48
  -5   0   3    4.19    2.26
  -5   0   3    5.46    0.75
  -5   0   3    5.28    0.74
  -5   0   3    6.03    0.82
  -5   0   4    2.27    0.63
  -5   0   4    0.56    0.45
  -5   0   4    0.12    0.48
  -5   0   4    0.08    0.41
  -5   0   4    0.27    0.93
  -5   0   4   -0.26    0.58
  -5   0   4    0.14    0.43
  -5   0   4   -0.23    0.44
  -5   0   4    0.24    0.41
  -5   0   5    0.44    0.50
  -5   0   5   -0.15    0.45
  -5   0   5    0.50    0.47
  -5   0   5    0.07    0.43
  -5   0   5    0.55    0.90
  -5   0   5    0.18    0.53
  -5   0   5    0.31    0.40
  -5   0   5    0.67    0.46
  -5   0   6   44.31    3.10
  -5   0   6   39.59    2.88
  -5   0   6   41.16    2.83
  -5   0   6   38.91    2.83
  -5   0   6   38.81    2.76
  -5   0   6   41.23    2.79
  -5   0   7   13.93    1.18
  -5   0   7   11.28    1.13
  -5   0   7    9.77    1.11
  -5   0   7   13.82    1.27
  -5   0   8    0.47    0.39
  -5   1 -11   18.48    1.25
  -5   1 -10    4.24    0.92
  -5   1 -10    6.47    0.70
  -5   1 -10    6.62    0.66
  -5   1 -10    4.96    1.33
  -5   1  -9   39.11    4.01
  -5   1  -9   33.59    3.80
  -5   1  -8    6.32    1.80
  -5   1  -8    8.13    1.77
  -5   1  -8    6.43    1.87
  -5   1  -8    2.77    1.81
  -5   1  -8    7.18    0.88
  -5   1  -7    0.61    0.90
  -5   1  -7    0.29    0.73
  -5   1  -7    1.13    1.11
  -5   1  -7   -0.47    1.29
  -5   1  -7    0.94    1.15
  -5   1  -7    0.38    0.43
  -5   1  -6    2.59    1.16
  -5   1  -6    1.93    1.04
  -5   1  -6    0.29    1.01
  -5   1  -6    1.74    1.15
  -5   1  -6    2.09    0.55
  -5   1  -6   -1.29    1.80
  -5   1  -6    1.76    1.38
  -5   1  -5    2.69    1.51
  -5   1  -5    2.91    1.25
  -5   1  -5    2.61    1.96
  -5   1  -5    2.41    1.00
  -5   1  -5    4.06    1.19
  -5   1  -5    4.01    1.37
  -5   1  -5    3.52    0.58
  -5   1  -5    2.86    0.57
  -5   1  -5    2.82    1.08
  -5   1  -5    1.55    1.05
  -5   1  -4   52.45    4.62
  -5   1  -4   45.76    4.42
  -5   1  -4   49.15    6.65
  -5   1  -4   53.55    4.06
  -5   1  -4   47.05    4.08
  -5   1  -4   47.67    4.67
  -5   1  -4   46.93    3.10
  -5   1  -4   46.05    3.10
  -5   1  -3   68.06    8.36
  -5   1  -3   71.40    5.39
  -5   1  -3   76.52    6.02
  -5   1  -3   75.55    5.94
  -5   1  -3   78.28    5.83
  -5   1  -3   79.23    6.15
  -5   1  -3   79.35    6.15
  -5   1  -2    2.02    1.99
  -5   1  -2    2.89    1.01
  -5   1  -2    2.20    1.44
  -5   1  -2    3.62    1.14
  -5   1  -2    3.14    0.98
  -5   1  -1  100.48    6.61
  -5   1  -1  101.33    6.78
  -5   1  -1   76.03    6.13
  -5   1  -1  108.76    7.07
  -5   1  -1   94.42    6.90
  -5   1  -1   92.27   10.00
  -5   1  -1   98.65    6.40
  -5   1   0   11.26    1.93
  -5   1   0    7.10    1.94
  -5   1   0    9.00    1.34
  -5   1   1   35.55    3.61
  -5   1   1   33.73    3.65
  -5   1   1   26.73    5.15
  -5   1   2   23.48    5.55
  -5   1   2   18.13    2.96
  -5   1   2   33.49    2.25
  -5   1   2   21.58    1.88
  -5   1   2   29.10    2.14
  -5   1   2   40.51    3.90
  -5   1   2   23.74    1.91
  -5   1   3    0.44    0.40
  -5   1   3    0.87    0.70
  -5   1   3    0.70    0.34
  -5   1   3    0.25    0.36
  -5   1   3    0.30    0.46
  -5   1   3    0.16    1.03
  -5   1   3    0.77    0.99
  -5   1   3    0.60    1.40
  -5   1   3    0.57    0.43
  -5   1   3    0.44    0.46
  -5   1   3    0.64    0.52
  -5   1   3    0.18    0.35
  -5   1   4  135.82    8.28
  -5   1   4  127.75    8.13
  -5   1   4  165.61    8.33
  -5   1   4  135.03    7.91
  -5   1   4  147.72    8.32
  -5   1   4  130.28    9.86
  -5   1   4  144.65    8.13
  -5   1   4  138.38    8.17
  -5   1   4  134.57    8.10
  -5   1   4  125.15    8.06
  -5   1   5    5.27    0.96
  -5   1   5    5.31    0.84
  -5   1   5    6.59    0.94
  -5   1   5    6.90    0.88
  -5   1   5    5.12    0.85
  -5   1   5    6.34    0.87
  -5   1   5    4.47    0.82
  -5   1   5    5.95    0.86
  -5   1   5    5.82    0.84
  -5   1   6  104.31    6.90
  -5   1   6  120.51    6.82
  -5   1   6  112.81    6.72
  -5   1   6  115.44    6.69
  -5   1   6  120.49    6.80
  -5   1   6  114.58    6.75
  -5   1   6   98.33    6.62
  -5   1   6  105.16    6.78
  -5   1   6  117.90    6.75
  -5   1   7   17.44    1.66
  -5   1   7   16.36    1.44
  -5   1   7   18.59    1.58
  -5   1   8   12.60    1.16
  -5   2 -10    2.96    0.42
  -5   2 -10    2.54    0.32
  -5   2  -9    2.41    1.31
  -5   2  -9    2.38    0.49
  -5   2  -9    2.47    0.52
  -5   2  -9    2.66    0.87
  -5   2  -8   15.09    2.50
  -5   2  -8   17.39    1.42
  -5   2  -8   12.89    1.97
  -5   2  -7  119.93    7.75
  -5   2  -7  108.63    8.35
  -5   2  -7  115.87    8.62
  -5   2  -7   92.68    7.80
  -5   2  -7  110.31    6.59
  -5   2  -7  105.44    9.01
  -5   2  -6   66.07    5.89
  -5   2  -6   68.69    6.11
  -5   2  -6   71.19    6.61
  -5   2  -6   51.70    5.33
  -5   2  -6   70.61    4.33
  -5   2  -6   68.68    4.25
  -5   2  -5    0.91    0.81
  -5   2  -5   -0.28    0.78
  -5   2  -5    0.24    0.80
  -5   2  -5    3.24    1.26
  -5   2  -5   -0.24    0.51
  -5   2  -5    0.38    0.41
  -5   2  -5    1.78    1.48
  -5   2  -4   46.15    4.14
  -5   2  -4   56.38    4.66
  -5   2  -4   49.66    3.92
  -5   2  -4   48.06    4.82
  -5   2  -4   51.63    3.29
  -5   2  -4   47.66    3.22
  -5   2  -3   16.77    1.50
  -5   2  -3   21.62    4.37
  -5   2  -3   15.09    2.02
  -5   2  -3   16.09    1.41
  -5   2  -3   17.33    1.44
  -5   2  -3   17.11    2.42
  -5   2  -3   20.46    2.41
  -5   2  -3   16.15    1.98
  -5   2  -3   15.45    2.37
  -5   2  -3   18.05    2.30
  -5   2  -2    7.99    3.20
  -5   2  -2    8.25    1.69
  -5   2  -2    9.29    1.50
  -5   2  -2    8.52    1.67
  -5   2  -2    9.81    1.52
  -5   2  -2   10.16    1.64
  -5   2  -2    8.35    0.92
  -5   2  -2    8.78    0.94
  -5   2  -2   11.28    1.98
  -5   2  -2    8.48    1.85
  -5   2  -2    7.90    1.88
  -5   2  -2    9.24    1.72
  -5   2  -1    4.73    1.45
  -5   2  -1    4.77    1.43
  -5   2  -1    5.08    1.56
  -5   2  -1    5.64    1.30
  -5   2  -1    8.77    3.30
  -5   2  -1    7.23    1.44
  -5   2  -1    4.93    1.31
  -5   2   0   28.19    3.06
  -5   2   0   29.00    2.71
  -5   2   1   11.65    1.11
  -5   2   1   10.74    1.86
  -5   2   1    8.28    3.25
  -5   2   1   11.31    1.07
  -5   2   1    5.72    1.72
  -5   2   1    9.60    2.07
  -5   2   1   10.75    1.99
  -5   2   2  152.04    8.72
  -5   2   2  128.43    7.37
  -5   2   2  134.67    7.42
  -5   2   2  128.66    7.22
  -5   2   2  122.49    8.71
  -5   2   2  146.43   12.58
  -5   2   2  122.35    7.22
  -5   2   2  129.96    7.27
  -5   2   3   36.77    2.86
  -5   2   3   43.32    2.90
  -5   2   3   47.02    2.87
  -5   2   3   34.73    2.92
  -5   2   3   43.39    2.99
  -5   2   3   41.96    2.79
  -5   2   3   42.74    2.92
  -5   2   3   42.72    2.93
  -5   2   3   43.62    4.21
  -5   2   4   68.38    4.93
  -5   2   4   83.45    4.96
  -5   2   4   73.91    4.93
  -5   2   4   75.23    4.90
  -5   2   4   88.38    4.93
  -5   2   4   76.31    4.67
  -5   2   4   77.23    4.89
  -5   2   4   83.34    4.90
  -5   2   4   73.16    6.32
  -5   2   5    3.48    0.81
  -5   2   5    3.20    0.71
  -5   2   5    2.75    0.64
  -5   2   5    4.04    0.65
  -5   2   5    4.35    0.76
  -5   2   5    2.54    0.67
  -5   2   5    3.93    0.66
  -5   2   5    4.08    0.82
  -5   2   5    2.36    0.44
  -5   2   5    1.10    0.88
  -5   2   6   60.94    3.89
  -5   2   6   59.68    3.83
  -5   2   6   57.99    3.74
  -5   2   6   52.10    3.90
  -5   2   6   54.65    3.82
  -5   2   6   58.19    3.73
  -5   2   7   12.10    1.16
  -5   2   7   11.84    1.18
  -5   2   7   11.09    1.09
  -5   2   7    9.71    1.02
  -5   2   7    9.38    1.23
  -5   2   8   10.25    1.14
  -5   3 -10    4.11    0.37
  -5   3  -9    1.00    0.31
  -5   3  -9    1.36    0.34
  -5   3  -9    0.81    0.78
  -5   3  -8    3.17    0.58
  -5   3  -8    1.55    0.80
  -5   3  -8    3.67    0.57
  -5   3  -8    1.10    1.15
  -5   3  -7   36.56    3.64
  -5   3  -7   27.95    2.95
  -5   3  -7   35.38    2.39
  -5   3  -7   32.49    2.27
  -5   3  -6   17.80    1.53
  -5   3  -6   15.22    2.23
  -5   3  -5   54.65    5.39
  -5   3  -5   55.82    4.80
  -5   3  -5   53.76    3.53
  -5   3  -5   54.02    3.56
  -5   3  -5   45.91    4.33
  -5   3  -4   86.72    5.02
  -5   3  -4   92.17    6.38
  -5   3  -4   77.43    6.04
  -5   3  -4   64.01    5.06
  -5   3  -4   91.02    5.18
  -5   3  -4   82.98    5.12
  -5   3  -4   80.68    6.85
  -5   3  -4   89.52    7.17
  -5   3  -4   88.62    6.71
  -5   3  -3   25.25    1.88
  -5   3  -3   20.09    1.60
  -5   3  -3   22.32    1.76
  -5   3  -3   16.23    2.38
  -5   3  -3   18.01    2.45
  -5   3  -3   19.57    3.03
  -5   3  -3   21.14    3.09
  -5   3  -3   19.32    1.71
  -5   3  -3   21.49    1.71
  -5   3  -3   20.36    2.74
  -5   3  -3   23.56    2.80
  -5   3  -3   24.78    3.16
  -5   3  -2   37.65    2.73
  -5   3  -2   36.20    2.64
  -5   3  -2   36.95    4.25
  -5   3  -2   37.90    4.27
  -5   3  -2   45.96    2.94
  -5   3  -2   40.62    3.80
  -5   3  -2   38.75    4.07
  -5   3  -1  107.40    6.65
  -5   3  -1  118.78    6.85
  -5   3  -1  110.04    8.71
  -5   3  -1  112.87    8.79
  -5   3  -1  101.64    7.62
  -5   3  -1  115.43    7.51
  -5   3   0    0.60    1.03
  -5   3   0   -0.30    0.70
  -5   3   0    0.22    0.43
  -5   3   0    0.14    0.90
  -5   3   0   -0.09    0.56
  -5   3   0    0.16    0.54
  -5   3   1   62.08    6.09
  -5   3   1   64.38    6.11
  -5   3   1   64.85    5.19
  -5   3   1   67.40    4.18
  -5   3   1   69.16    4.29
  -5   3   2   21.81    1.81
  -5   3   2   25.47    1.91
  -5   3   2   25.96    3.46
  -5   3   2   23.66    3.37
  -5   3   2   26.48    1.85
  -5   3   2   23.14    1.96
  -5   3   2   23.81    2.76
  -5   3   2   19.81    1.97
  -5   3   3    6.98    0.93
  -5   3   3    6.31    0.97
  -5   3   3    5.87    0.77
  -5   3   3    5.33    0.82
  -5   3   3    7.06    0.87
  -5   3   3    5.21    1.32
  -5   3   3    5.35    0.93
  -5   3   4   10.50    1.21
  -5   3   4    8.80    1.05
  -5   3   4    8.35    1.12
  -5   3   4    8.05    0.86
  -5   3   4    8.44    1.13
  -5   3   4    9.55    1.07
  -5   3   4    7.45    1.05
  -5   3   4    7.61    1.67
  -5   3   5    2.73    0.65
  -5   3   5    3.57    0.70
  -5   3   5    3.94    0.76
  -5   3   5    3.10    0.71
  -5   3   5    2.99    0.59
  -5   3   5    2.35    0.69
  -5   3   5    2.21    0.57
  -5   3   5    2.92    0.73
  -5   3   5    1.53    0.85
  -5   3   6   22.63    1.79
  -5   3   6   20.72    1.69
  -5   3   6   20.63    1.82
  -5   3   6   17.78    1.63
  -5   3   6   20.45    1.72
  -5   3   6   17.29    1.78
  -5   3   6   19.04    1.57
  -5   3   7    9.52    1.07
  -5   3   7   11.17    1.07
  -5   3   7   10.02    1.08
  -5   3   7    9.66    1.10
  -5   3   7    9.23    0.92
  -5   3   8    5.49    0.69
  -5   3   8    6.87    0.78
  -5   4  -8   24.25    2.29
  -5   4  -7    0.20    0.30
  -5   4  -7    0.17    0.34
  -5   4  -7   -0.15    1.05
  -5   4  -7    0.64    0.69
  -5   4  -6    4.01    1.16
  -5   4  -6    3.96    0.61
  -5   4  -6    4.32    0.72
  -5   4  -6    4.21    0.69
  -5   4  -6    6.02    1.66
  -5   4  -6    3.91    1.22
  -5   4  -5   33.53    3.15
  -5   4  -5   26.72    3.22
  -5   4  -5   34.68    2.28
  -5   4  -5   31.55    2.38
  -5   4  -5   32.63    2.38
  -5   4  -5   31.88    3.83
  -5   4  -5   31.01    3.42
  -5   4  -4   -0.77    1.28
  -5   4  -4    0.65    1.09
  -5   4  -4   -0.20    0.42
  -5   4  -4    0.14    0.43
  -5   4  -4    0.32    0.40
  -5   4  -4    0.29    0.31
  -5   4  -4    0.43    0.59
  -5   4  -4    0.30    0.69
  -5   4  -3   15.69    2.51
  -5   4  -3   14.93    1.51
  -5   4  -3   15.83    2.22
  -5   4  -3   15.80    1.56
  -5   4  -3   17.93    1.58
  -5   4  -3   15.91    1.43
  -5   4  -3   16.68    1.49
  -5   4  -3   16.21    2.22
  -5   4  -3   13.92    2.60
  -5   4  -3   14.31    2.65
  -5   4  -2    6.21    1.73
  -5   4  -2    6.82    1.88
  -5   4  -2    5.90    0.98
  -5   4  -2    6.44    1.64
  -5   4  -2    7.14    1.54
  -5   4  -2    6.71    1.00
  -5   4  -2    6.39    0.84
  -5   4  -2    7.21    0.95
  -5   4  -1  162.75    8.64
  -5   4  -1  127.72    8.74
  -5   4  -1  130.87    8.47
  -5   4  -1  145.01   10.78
  -5   4  -1  140.26   10.70
  -5   4   0    0.68    1.01
  -5   4   0    1.02    0.93
  -5   4   0   -0.12    0.78
  -5   4   0    0.76    0.49
  -5   4   0    1.82    0.68
  -5   4   0    1.01    0.49
  -5   4   1   15.51    1.31
  -5   4   1   13.21    1.66
  -5   4   2   55.24    3.58
  -5   4   2   56.04    3.95
  -5   4   2   55.08    5.71
  -5   4   2   59.52    5.82
  -5   4   2   57.14    3.75
  -5   4   2   61.06    4.19
  -5   4   3  434.89   29.21
  -5   4   3  466.15   29.41
  -5   4   3  483.65   27.01
  -5   4   3  510.75   26.97
  -5   4   3  477.87   27.12
  -5   4   3  503.25   27.18
  -5   4   3  454.46   26.78
  -5   4   3  516.70   27.29
  -5   4   4  162.84    9.92
  -5   4   4  168.19    9.76
  -5   4   4  186.03   10.17
  -5   4   4  160.18    9.91
  -5   4   4  174.88   10.07
  -5   4   5    0.05    0.41
  -5   4   5   -0.07    0.52
  -5   4   5    0.31    0.48
  -5   4   5    0.13    0.36
  -5   4   5   -0.34    0.64
  -5   4   5   -0.16    0.58
  -5   4   6   11.01    1.22
  -5   4   6   10.06    1.14
  -5   4   6   10.42    1.20
  -5   4   6   11.76    1.18
  -5   4   7   79.82    4.54
  -5   4   7   72.40    4.55
  -5   4   7   65.15    4.35
  -5   4   8   25.50    1.82
  -5   4   8   24.58    1.79
  -5   5  -7    6.15    0.58
  -5   5  -7    5.06    0.59
  -5   5  -6    0.32    0.36
  -5   5  -6    0.09    0.34
  -5   5  -5   12.01    1.14
  -5   5  -5   12.08    1.17
  -5   5  -4    0.41    0.42
  -5   5  -4   -0.06    0.40
  -5   5  -4    0.20    0.48
  -5   5  -3    9.18    1.10
  -5   5  -3    7.39    1.73
  -5   5  -3    8.84    0.99
  -5   5  -3    7.50    0.89
  -5   5  -3    8.38    1.04
  -5   5  -2    0.66    1.02
  -5   5  -2   -0.66    0.97
  -5   5  -2   -0.17    0.50
  -5   5  -2    0.25    0.64
  -5   5  -2    0.23    0.42
  -5   5  -2    0.37    0.49
  -5   5  -1  152.70   12.46
  -5   5  -1  163.36   12.68
  -5   5  -1  193.56   10.47
  -5   5  -1  186.13   10.52
  -5   5  -1  153.02   10.73
  -5   5   0   16.97    1.64
  -5   5   0   14.18    1.78
  -5   5   0   14.89    1.21
  -5   5   0   14.21    2.72
  -5   5   0   12.11    2.66
  -5   5   0   15.50    1.44
  -5   5   1   22.31    1.56
  -5   5   1   23.66    1.84
  -5   5   1   19.00    2.14
  -5   5   2    5.74    1.00
  -5   5   2    4.23    1.17
  -5   5   2    3.76    0.62
  -5   5   2    6.81    1.90
  -5   5   2    4.57    1.69
  -5   5   2    6.88    0.88
  -5   5   3   11.77    1.33
  -5   5   3   10.06    2.21
  -5   5   3    7.60    1.99
  -5   5   3   10.20    1.30
  -5   5   3   11.04    1.12
  -5   5   3    8.94    1.09
  -5   5   4    1.69    0.62
  -5   5   4    1.63    0.72
  -5   5   4    1.56    0.55
  -5   5   4    3.91    0.81
  -5   5   4    2.68    0.53
  -5   5   4    2.54    0.68
  -5   5   5   11.93    1.30
  -5   5   5   13.45    1.46
  -5   5   5   10.90    1.10
  -5   5   5   12.82    1.26
  -5   5   6    1.52    0.54
  -5   5   6    2.88    0.66
  -5   5   6    4.11    0.79
  -5   5   6    2.20    0.53
  -5   5   6    3.16    0.74
  -5   5   7   67.49    4.29
  -5   5   7   71.18    4.40
  -5   5   8    3.38    0.55
  -5   5   8    2.82    0.50
  -5   5   8    3.91    0.57
  -5   6  -6   88.41    5.08
  -5   6  -5    1.04    0.39
  -5   6  -4    9.81    1.04
  -5   6  -3    1.82    0.47
  -5   6  -3    3.49    0.68
  -5   6  -3    3.40    0.63
  -5   6  -2   11.26    1.68
  -5   6  -2   14.89    1.44
  -5   6  -1   16.47    1.75
  -5   6  -1   17.51    2.14
  -5   6  -1   19.14    1.72
  -5   6   0   52.76    3.74
  -5   6   0   41.67    3.90
  -5   6   0   50.95    3.55
  -5   6   1  122.89    6.97
  -5   6   1  115.84    7.34
  -5   6   1  128.52    6.76
  -5   6   2   15.81    1.58
  -5   6   2   15.41    1.84
  -5   6   2   15.13    1.33
  -5   6   3    3.41    0.63
  -5   6   3    3.28    0.67
  -5   6   3    3.53    0.82
  -5   6   4   76.21    4.88
  -5   6   4   75.32    4.75
  -5   6   5    7.10    0.92
  -5   6   5    6.50    0.90
  -5   6   6    3.51    0.71
  -5   6   6    3.11    0.61
  -5   6   7   97.27    5.75
  -5   6   8    6.56    0.69
  -5   6   8    7.35    0.69
  -5   6   8    7.22    0.67
  -5   7  -5   18.47    1.22
  -5   7  -4   24.17    2.25
  -5   7  -4   34.91    2.06
  -5   7  -3   10.97    1.35
  -5   7  -2   19.40    1.98
  -5   7  -2   19.76    1.57
  -5   7  -2   18.32    1.47
  -5   7  -2   20.16    1.59
  -5   7  -1    8.52    1.34
  -5   7  -1    8.91    1.00
  -5   7  -1   10.59    1.14
  -5   7   0   11.56    1.65
  -5   7   0   15.08    1.33
  -5   7   0   16.24    1.49
  -5   7   1   15.80    1.86
  -5   7   1   16.88    1.41
  -5   7   1   15.94    1.63
  -5   7   2    1.18    0.78
  -5   7   2    0.25    0.36
  -5   7   2    0.16    0.51
  -5   7   3    4.24    0.80
  -5   7   3    3.95    0.78
  -5   7   4    5.17    0.80
  -5   7   4    5.55    0.70
  -5   7   5    6.92    0.82
  -5   7   5    7.40    0.81
  -5   7   6   60.71    3.76
  -5   7   6   59.56    3.65
  -5   7   7   67.02    3.94
  -5   7   7   64.87    3.86
  -5   7   7   64.99    3.87
  -5   7   8    9.52    0.69
  -5   7   8    8.62    0.62
  -5   7   8    9.00    0.64
  -5   8  -3   29.46    1.82
  -5   8  -2    4.77    0.55
  -5   8  -1    8.60    1.06
  -5   8  -1    7.51    0.73
  -5   8  -1    7.03    0.72
  -5   8  -1    8.11    0.82
  -5   8   0   -0.16    0.55
  -5   8   0    0.39    0.30
  -5   8   0   -0.04    0.36
  -5   8   0    0.45    0.40
  -5   8   1   19.04    1.84
  -5   8   1   18.30    1.53
  -5   8   1   21.50    1.62
  -5   8   2   12.24    1.16
  -5   8   2   14.39    1.29
  -5   8   3   44.03    2.70
  -5   8   4   59.12    3.64
  -5   8   4   58.19    3.53
  -5   8   5   35.58    2.08
  -5   8   5   29.39    1.90
  -5   8   6    0.35    0.23
  -5   8   6    0.11    0.15
  -5   9   1    4.99    0.48
  -5   9   2    6.82    0.63
  -5   9   4    1.55    0.24
  -4 -10  -9   35.63    2.31
  -4 -10  -8    0.16    0.42
  -4 -10  -7    7.04    0.92
  -4 -10  -6    0.86    0.59
  -4 -10  -6   -0.13    0.80
  -4 -10  -5   54.07    3.47
  -4 -10  -5   45.70    3.94
  -4 -10  -4    0.45    0.50
  -4 -10  -4    0.70    0.87
  -4 -10  -3   49.00    4.17
  -4 -10  -3   64.76    3.83
  -4 -10  -2   44.02    2.89
  -4 -10  -1   16.99    1.29
  -4  -9  -9    2.29    0.88
  -4  -9  -8    6.49    0.70
  -4  -9  -8    2.71    1.09
  -4  -9  -7   28.20    1.94
  -4  -9  -7   21.90    2.72
  -4  -9  -6   52.11    3.72
  -4  -9  -6   50.42    3.23
  -4  -9  -6   44.15    4.30
  -4  -9  -5  125.54    7.32
  -4  -9  -5  112.76    6.74
  -4  -9  -5  102.98    7.99
  -4  -9  -4  255.66   14.27
  -4  -9  -4  238.11   13.72
  -4  -9  -3  244.94   14.14
  -4  -9  -3  223.70   15.50
  -4  -9  -2  129.15    7.58
  -4  -9  -2  116.12    8.68
  -4  -9  -1   11.57    1.25
  -4  -9  -1    9.90    0.87
  -4  -9   0   16.19    1.46
  -4  -9   1    0.85    0.43
  -4  -9   1    0.76    0.39
  -4  -9   2    1.35    0.30
  -4  -9   2    1.36    0.24
  -4  -8 -11    4.75    0.80
  -4  -8 -11    4.93    0.54
  -4  -8 -10    7.06    0.84
  -4  -8 -10    6.63    1.11
  -4  -8 -10    8.69    1.58
  -4  -8 -10    4.56    1.22
  -4  -8  -9   13.43    2.14
  -4  -8  -9   16.16    1.39
  -4  -8  -9   12.05    1.67
  -4  -8  -9   12.22    3.37
  -4  -8  -9   16.43    1.80
  -4  -8  -9    9.87    1.32
  -4  -8  -8    2.29    0.68
  -4  -8  -8    3.19    2.20
  -4  -8  -8    3.27    2.81
  -4  -8  -8    1.20    1.12
  -4  -8  -8    1.68    0.84
  -4  -8  -8    1.52    1.15
  -4  -8  -7    0.39    0.58
  -4  -8  -7   -0.84    2.14
  -4  -8  -7    1.82    1.66
  -4  -8  -7    1.97    1.23
  -4  -8  -7    0.23    0.69
  -4  -8  -7   -0.21    1.19
  -4  -8  -6    3.92    1.64
  -4  -8  -6    3.90    1.91
  -4  -8  -6    3.91    1.32
  -4  -8  -6    4.06    2.67
  -4  -8  -6    6.98    2.80
  -4  -8  -6    4.92    1.99
  -4  -8  -6    3.69    1.00
  -4  -8  -6    4.06    0.81
  -4  -8  -5   19.31    1.64
  -4  -8  -5   13.85    3.17
  -4  -8  -5   15.53    3.91
  -4  -8  -5   12.98    1.75
  -4  -8  -5   17.96    3.47
  -4  -8  -5    9.43    2.90
  -4  -8  -5   16.85    2.69
  -4  -8  -4  171.95   12.84
  -4  -8  -4  164.86   12.75
  -4  -8  -4  124.58   12.74
  -4  -8  -4  188.49   14.38
  -4  -8  -4  130.24    9.70
  -4  -8  -4  169.37   11.16
  -4  -8  -4  181.70    9.54
  -4  -8  -3  107.72   11.25
  -4  -8  -3  129.70   11.77
  -4  -8  -3  122.29    9.35
  -4  -8  -3  113.63   10.35
  -4  -8  -3  130.41   10.72
  -4  -8  -3  139.15    7.83
  -4  -8  -2    0.40    0.45
  -4  -8  -2    0.23    1.28
  -4  -8  -1    0.43    0.44
  -4  -8  -1    0.21    1.16
  -4  -8   0   10.14    0.92
  -4  -8   0    9.00    0.96
  -4  -8   0    7.25    1.57
  -4  -8   1    0.48    0.33
  -4  -8   2    5.94    0.83
  -4  -8   2    5.62    0.87
  -4  -8   3    0.68    0.33
  -4  -8   3    0.43    0.35
  -4  -7 -12   21.85    1.50
  -4  -7 -11    1.02    0.91
  -4  -7 -11    1.25    0.94
  -4  -7 -10    9.54    1.46
  -4  -7 -10    9.93    3.33
  -4  -7 -10    8.30    1.58
  -4  -7 -10    8.91    1.76
  -4  -7  -9   85.03   10.54
  -4  -7  -9   77.34    6.26
  -4  -7  -9   94.29    6.81
  -4  -7  -8   34.51    5.02
  -4  -7  -8   21.84    2.75
  -4  -7  -8   29.47    3.05
  -4  -7  -8   27.79    3.46
  -4  -7  -8   33.55    5.62
  -4  -7  -8   26.57    4.55
  -4  -7  -8   31.77    5.99
  -4  -7  -8   20.95    2.48
  -4  -7  -8   30.16    2.61
  -4  -7  -7   52.45    5.22
  -4  -7  -7   80.05    4.97
  -4  -7  -7   69.68    7.58
  -4  -7  -7   60.02    5.16
  -4  -7  -7   57.33    5.00
  -4  -7  -7   77.74    6.01
  -4  -7  -7   73.94    7.83
  -4  -7  -7   66.22    8.16
  -4  -7  -7   63.48    9.36
  -4  -7  -7   56.86    8.52
  -4  -7  -7   47.25    9.04
  -4  -7  -7   67.02    4.49
  -4  -7  -6   98.54    6.04
  -4  -7  -6   70.48    9.58
  -4  -7  -6   98.56   11.73
  -4  -7  -6   95.62    9.21
  -4  -7  -6   94.10   10.10
  -4  -7  -6   99.32    6.49
  -4  -7  -6  102.96    6.40
  -4  -7  -6  112.52    9.78
  -4  -7  -6   89.99    6.86
  -4  -7  -6   73.84    6.21
  -4  -7  -6  103.32    7.33
  -4  -7  -6   81.85   12.45
  -4  -7  -6   89.10    7.15
  -4  -7  -5   70.52    6.12
  -4  -7  -5   79.16    4.92
  -4  -7  -5   57.96    8.92
  -4  -7  -5   53.00    7.59
  -4  -7  -5   80.36    8.95
  -4  -7  -5   76.43    7.93
  -4  -7  -5   83.29    5.42
  -4  -7  -5   77.60    5.25
  -4  -7  -5   79.93    7.98
  -4  -7  -5   65.11    5.61
  -4  -7  -5   70.46    5.74
  -4  -7  -5   79.48   12.42
  -4  -7  -5   55.23    7.22
  -4  -7  -4   80.29    4.91
  -4  -7  -4   67.15    8.91
  -4  -7  -4   82.64    5.40
  -4  -7  -4   47.27    7.24
  -4  -7  -4   80.09    7.93
  -4  -7  -4   63.56    5.46
  -4  -7  -4   68.76    5.43
  -4  -7  -4   79.72    8.83
  -4  -7  -4   82.70    8.07
  -4  -7  -4   75.13    6.32
  -4  -7  -4   76.76   12.47
  -4  -7  -3  191.53   14.70
  -4  -7  -3  192.87   14.78
  -4  -7  -3  217.55   11.68
  -4  -7  -3  196.65   15.91
  -4  -7  -3  223.58   12.21
  -4  -7  -3  153.54   15.23
  -4  -7  -3  169.59   11.88
  -4  -7  -2   28.83    8.05
  -4  -7  -2   20.33    4.62
  -4  -7  -2   20.79    3.83
  -4  -7  -2   36.35    2.80
  -4  -7  -2   22.48    2.37
  -4  -7  -2   22.35    3.85
  -4  -7  -2   21.48    4.30
  -4  -7  -2   32.29    3.75
  -4  -7  -2   29.67    2.24
  -4  -7  -1   84.91   13.06
  -4  -7  -1   83.17    5.20
  -4  -7  -1   76.36    8.48
  -4  -7  -1   85.73    5.67
  -4  -7  -1   78.63    6.59
  -4  -7  -1   69.76    8.63
  -4  -7   0    1.07    1.29
  -4  -7   0    3.45    0.69
  -4  -7   1   19.41    1.53
  -4  -7   1   17.83    1.58
  -4  -7   2   12.69    1.19
  -4  -7   3  136.25    8.12
  -4  -7   4   14.77    1.23
  -4  -7   5    0.88    0.19
  -4  -6 -12    9.61    1.45
  -4  -6 -11    1.67    0.85
  -4  -6 -11    0.99    1.07
  -4  -6 -11    0.43    0.80
  -4  -6 -11    1.21    1.67
  -4  -6 -10    9.45    1.25
  -4  -6 -10    4.06    2.36
  -4  -6 -10    5.45    2.82
  -4  -6 -10    6.81    1.64
  -4  -6 -10    5.78    1.51
  -4  -6 -10    6.10    1.69
  -4  -6  -9    6.25    1.92
  -4  -6  -9    5.60    1.16
  -4  -6  -9    1.71    2.06
  -4  -6  -9    0.66    1.68
  -4  -6  -9    1.70    2.05
  -4  -6  -9    1.85    1.10
  -4  -6  -9    2.87    2.11
  -4  -6  -9    3.31    1.40
  -4  -6  -8   29.35    5.39
  -4  -6  -8   29.90    3.31
  -4  -6  -8   23.70    2.80
  -4  -6  -8   21.73    5.64
  -4  -6  -8   33.91    6.78
  -4  -6  -8   21.79    4.74
  -4  -6  -7   91.52    7.13
  -4  -6  -7  116.90    7.67
  -4  -6  -7  132.60    8.55
  -4  -6  -7  115.58   12.54
  -4  -6  -7   91.99    6.97
  -4  -6  -7  117.56   11.18
  -4  -6  -7   95.56    7.37
  -4  -6  -7  103.01   12.96
  -4  -6  -6  200.59   13.79
  -4  -6  -6  259.66   21.24
  -4  -6  -6  234.97   19.61
  -4  -6  -6  294.87   19.35
  -4  -6  -6  242.12   14.75
  -4  -6  -6  222.72   14.46
  -4  -6  -6  246.42   14.50
  -4  -6  -6  284.54   15.54
  -4  -6  -6  270.08   23.35
  -4  -6  -6  217.66   14.68
  -4  -6  -5   25.15    3.18
  -4  -6  -5   34.38    2.72
  -4  -6  -5   17.86    3.81
  -4  -6  -5   25.51    2.97
  -4  -6  -5   27.06    2.70
  -4  -6  -5   33.06    3.49
  -4  -6  -5   20.96    4.29
  -4  -6  -5   30.78    5.53
  -4  -6  -5   22.99    5.70
  -4  -6  -5   25.50    2.29
  -4  -6  -5   24.24    7.04
  -4  -6  -4  253.18   12.61
  -4  -6  -4  175.08   15.14
  -4  -6  -4  230.39   21.67
  -4  -6  -4  135.84   12.21
  -4  -6  -4  215.36   13.02
  -4  -6  -4  237.32   16.78
  -4  -6  -4  173.35   15.49
  -4  -6  -4  214.59   18.09
  -4  -6  -4  204.05   13.33
  -4  -6  -4  230.68   12.07
  -4  -6  -3  746.67   36.27
  -4  -6  -3  614.41   35.34
  -4  -6  -3  689.00   36.11
  -4  -6  -3  646.69   46.63
  -4  -6  -3  548.22   36.31
  -4  -6  -3  718.85   40.78
  -4  -6  -3  686.30   35.74
  -4  -6  -3  606.31   36.29
  -4  -6  -3  512.27   39.34
  -4  -6  -2    0.60    1.51
  -4  -6  -2    1.37    3.18
  -4  -6  -2    0.98    0.39
  -4  -6  -2    0.87    0.65
  -4  -6  -2    0.71    0.78
  -4  -6  -2    0.54    1.38
  -4  -6  -2   -0.24    1.42
  -4  -6  -2    0.31    0.55
  -4  -6  -1   -0.62    1.70
  -4  -6  -1    0.93    0.60
  -4  -6  -1    0.96    0.67
  -4  -6  -1    2.30    0.65
  -4  -6  -1    0.54    1.27
  -4  -6  -1    4.02    3.41
  -4  -6  -1    2.19    1.50
  -4  -6   0    2.64    0.93
  -4  -6   0    3.79    3.71
  -4  -6   0    2.61    0.67
  -4  -6   0    0.23    1.20
  -4  -6   1    3.65    0.69
  -4  -6   1    2.67    0.63
  -4  -6   1    2.65    0.68
  -4  -6   1    3.29    1.00
  -4  -6   1    3.66    1.49
  -4  -6   2  158.56    8.60
  -4  -6   2  164.79    8.75
  -4  -6   2  162.71    9.24
  -4  -6   2  124.14    8.52
  -4  -6   2  135.88    8.62
  -4  -6   3    2.14    0.46
  -4  -6   3    2.97    0.63
  -4  -6   3    3.46    0.94
  -4  -6   3    2.10    0.57
  -4  -6   4   70.95    4.88
  -4  -6   4   72.50    4.56
  -4  -6   4   80.26    4.84
  -4  -6   5   34.57    2.24
  -4  -6   5   29.56    2.42
  -4  -6   6    0.15    0.18
  -4  -5 -12    0.26    0.75
  -4  -5 -12    0.13    0.67
  -4  -5 -11   29.40    3.04
  -4  -5 -11   33.63    5.76
  -4  -5 -11   23.80    4.82
  -4  -5 -11   32.85    3.19
  -4  -5 -11   33.00    3.33
  -4  -5 -11   33.76    3.29
  -4  -5 -10   33.20    6.46
  -4  -5 -10   35.22    6.39
  -4  -5 -10   31.36    3.38
  -4  -5 -10   40.37    3.91
  -4  -5  -9    2.21    2.31
  -4  -5  -9    6.22    2.68
  -4  -5  -9    0.83    2.30
  -4  -5  -9    9.07    3.78
  -4  -5  -9    4.93    1.47
  -4  -5  -9    6.10    1.83
  -4  -5  -9    3.86    2.16
  -4  -5  -9    5.59    1.47
  -4  -5  -9    6.32    1.84
  -4  -5  -8   13.83    2.67
  -4  -5  -8   11.33    2.19
  -4  -5  -8   11.05    1.94
  -4  -5  -8   16.37    5.00
  -4  -5  -8    2.20    2.51
  -4  -5  -8    4.96    2.34
  -4  -5  -8    4.34    0.76
  -4  -5  -8    0.55    1.99
  -4  -5  -8    4.57    1.47
  -4  -5  -7   36.51    5.51
  -4  -5  -7   44.78    4.20
  -4  -5  -7   30.63    6.53
  -4  -5  -7   47.93    4.19
  -4  -5  -7   34.89    3.55
  -4  -5  -7   31.71    5.48
  -4  -5  -7   36.66    5.47
  -4  -5  -7   42.45    7.57
  -4  -5  -7   35.87    3.53
  -4  -5  -7   36.27    6.86
  -4  -5  -7   41.27    2.77
  -4  -5  -6   19.46    1.62
  -4  -5  -6   17.29    3.85
  -4  -5  -6   22.47    2.73
  -4  -5  -6   19.95    2.41
  -4  -5  -6   24.40    3.09
  -4  -5  -6   20.99    2.59
  -4  -5  -6   18.88    2.60
  -4  -5  -6   15.69    3.83
  -4  -5  -6   22.32    4.23
  -4  -5  -6   24.90    6.00
  -4  -5  -6   19.14    2.28
  -4  -5  -6   13.89    4.38
  -4  -5  -5   28.64    2.19
  -4  -5  -5   35.70    4.93
  -4  -5  -5   35.01    3.41
  -4  -5  -5   34.65    3.22
  -4  -5  -5   41.20    3.79
  -4  -5  -5   29.21    2.98
  -4  -5  -5   34.08    6.38
  -4  -5  -5   25.67    2.64
  -4  -5  -5   43.78    6.66
  -4  -5  -5   27.02    4.43
  -4  -5  -5   34.13    5.10
  -4  -5  -5   31.79    7.21
  -4  -5  -5   32.72    3.48
  -4  -5  -4  145.98   10.41
  -4  -5  -4  131.22   11.82
  -4  -5  -4  184.34   12.84
  -4  -5  -4  161.83   10.47
  -4  -5  -4  157.96   10.20
  -4  -5  -4  168.41   10.60
  -4  -5  -4  153.40    9.84
  -4  -5  -4  188.58   12.99
  -4  -5  -4  180.98   13.29
  -4  -5  -4  143.12   14.29
  -4  -5  -4  151.73   13.56
  -4  -5  -4  149.07   16.55
  -4  -5  -3   33.72    5.53
  -4  -5  -3   57.61    9.63
  -4  -5  -3   64.75    6.37
  -4  -5  -3   55.88    4.50
  -4  -5  -3   40.96    5.83
  -4  -5  -3   54.22    7.35
  -4  -5  -3   68.11    6.51
  -4  -5  -3   60.41    6.60
  -4  -5  -3   60.66    3.80
  -4  -5  -3   49.81    4.68
  -4  -5  -2  253.81   18.46
  -4  -5  -2  326.98   20.69
  -4  -5  -2  308.59   17.44
  -4  -5  -2  316.78   20.56
  -4  -5  -2  326.40   21.30
  -4  -5  -2  322.24   17.79
  -4  -5  -2  255.88   20.66
  -4  -5  -2  322.29   17.69
  -4  -5  -1  243.07   14.51
  -4  -5  -1  223.43   14.11
  -4  -5  -1  280.77   24.26
  -4  -5  -1  260.89   15.52
  -4  -5  -1  251.99   17.36
  -4  -5  -1  265.71   17.56
  -4  -5  -1  286.80   14.85
  -4  -5  -1  209.55   17.89
  -4  -5  -1  273.99   18.23
  -4  -5  -1  280.02   14.46
  -4  -5  -1  247.13   15.74
  -4  -5   0    1.17    2.72
  -4  -5   0    1.44    0.57
  -4  -5   0    0.99    0.45
  -4  -5   0    2.90    0.84
  -4  -5   0    1.96    1.61
  -4  -5   0    1.97    0.57
  -4  -5   0    2.44    0.62
  -4  -5   0    1.98    1.35
  -4  -5   1   11.11    1.28
  -4  -5   1   12.64    1.30
  -4  -5   1   14.02    1.31
  -4  -5   1   15.85    1.77
  -4  -5   1   12.88    2.68
  -4  -5   1   14.38    5.79
  -4  -5   2   28.86    2.36
  -4  -5   2   33.40    2.44
  -4  -5   2   31.78    2.77
  -4  -5   2   28.74    2.32
  -4  -5   2   33.06    2.40
  -4  -5   3   31.63    2.60
  -4  -5   3   40.87    2.63
  -4  -5   3   35.35    3.04
  -4  -5   3   41.79    2.81
  -4  -5   3   32.67    2.61
  -4  -5   4    1.55    0.45
  -4  -5   4    3.40    0.86
  -4  -5   4    1.60    0.60
  -4  -5   4    2.50    0.67
  -4  -5   4    2.47    0.90
  -4  -5   5   32.42    2.39
  -4  -5   5   30.57    2.22
  -4  -5   5   26.45    2.42
  -4  -5   6   38.55    2.39
  -4  -5   6   30.97    2.23
  -4  -5   7    0.14    0.17
  -4  -5   7   -0.02    0.14
  -4  -4 -12   -0.70    0.81
  -4  -4 -12   -0.14    0.71
  -4  -4 -12    0.37    0.69
  -4  -4 -11   23.27    4.98
  -4  -4 -11   19.87    4.24
  -4  -4 -11   25.61    2.88
  -4  -4 -11   21.81    2.67
  -4  -4 -11   20.54    2.37
  -4  -4 -10  232.12   15.49
  -4  -4 -10  245.93   15.36
  -4  -4 -10  259.21   13.91
  -4  -4 -10  242.54   17.84
  -4  -4 -10  247.28   15.88
  -4  -4 -10  265.14   18.18
  -4  -4 -10  204.74   15.01
  -4  -4 -10  249.33   15.32
  -4  -4 -10  217.53   19.44
  -4  -4 -10  257.93   21.07
  -4  -4  -9   11.56    2.39
  -4  -4  -9   16.00    1.41
  -4  -4  -9   14.97    3.53
  -4  -4  -9   17.82    3.91
  -4  -4  -9   15.47    2.72
  -4  -4  -9    8.98    3.93
  -4  -4  -9    9.70    3.97
  -4  -4  -9   16.47    2.55
  -4  -4  -9   14.81    2.33
  -4  -4  -9   16.42    2.57
  -4  -4  -9   16.49    3.60
  -4  -4  -8   19.65    2.90
  -4  -4  -8   24.31    4.30
  -4  -4  -8   25.06    3.18
  -4  -4  -8   22.54    1.70
  -4  -4  -8   23.67    1.84
  -4  -4  -8   26.85    4.46
  -4  -4  -8   22.37    3.31
  -4  -4  -8   27.59    4.75
  -4  -4  -8   18.64    2.64
  -4  -4  -8   24.35    5.58
  -4  -4  -8   28.43    6.10
  -4  -4  -8   21.76    2.61
  -4  -4  -7   19.40    3.84
  -4  -4  -7   19.66    2.76
  -4  -4  -7   23.99    3.05
  -4  -4  -7   19.76    1.53
  -4  -4  -7   19.63    1.63
  -4  -4  -7   22.23    4.05
  -4  -4  -7   24.60    3.26
  -4  -4  -7   17.68    3.79
  -4  -4  -7   14.07    4.43
  -4  -4  -7   22.11    2.59
  -4  -4  -7   15.27    2.54
  -4  -4  -7   20.43    2.44
  -4  -4  -6   20.43    2.41
  -4  -4  -6   16.35    4.88
  -4  -4  -6   19.17    3.68
  -4  -4  -6   22.91    2.78
  -4  -4  -6   24.81    2.84
  -4  -4  -6   24.36    1.77
  -4  -4  -6   23.94    4.05
  -4  -4  -6   25.91    3.28
  -4  -4  -6   15.62    3.45
  -4  -4  -6   21.19    2.45
  -4  -4  -6   28.91    5.75
  -4  -4  -6   23.71    5.32
  -4  -4  -6   17.45    2.36
  -4  -4  -5   98.05    6.46
  -4  -4  -5   97.79    6.82
  -4  -4  -5   91.26    8.20
  -4  -4  -5   90.37    6.40
  -4  -4  -5  108.72    7.08
  -4  -4  -5  104.02   11.99
  -4  -4  -5   76.69    6.92
  -4  -4  -5   84.46    8.08
  -4  -4  -5   81.69    8.14
  -4  -4  -5   87.00    9.93
  -4  -4  -5   82.69    8.60
  -4  -4  -5   83.18    6.02
  -4  -4  -5   83.00    6.41
  -4  -4  -4   13.48    2.75
  -4  -4  -4   18.27    2.23
  -4  -4  -4   18.50    2.36
  -4  -4  -4   19.70    5.57
  -4  -4  -4   15.81    2.98
  -4  -4  -4   16.21    3.09
  -4  -4  -4   12.35    1.76
  -4  -4  -4   13.96    1.61
  -4  -4  -4   14.51    4.13
  -4  -4  -4   13.90    3.63
  -4  -4  -4   11.30    2.01
  -4  -4  -3  204.34   16.87
  -4  -4  -3  267.79   15.69
  -4  -4  -3  289.77   17.62
  -4  -4  -3  259.12   15.55
  -4  -4  -3  301.03   23.07
  -4  -4  -3  291.94   17.95
  -4  -4  -3  297.76   17.71
  -4  -4  -3  228.70   15.48
  -4  -4  -3  230.76   18.13
  -4  -4  -2  235.20   14.40
  -4  -4  -2  236.72   14.64
  -4  -4  -2  217.82   14.11
  -4  -4  -2  183.87   11.93
  -4  -4  -1   26.46    3.55
  -4  -4  -1   25.74    3.55
  -4  -4  -1   24.97    3.79
  -4  -4  -1   14.21    5.41
  -4  -4  -1   20.77    2.66
  -4  -4   0  127.91    9.80
  -4  -4   0  103.20    7.86
  -4  -4   0  109.51   13.40
  -4  -4   0  117.68    7.94
  -4  -4   1   17.21    1.59
  -4  -4   1   14.83    1.38
  -4  -4   1   19.97    1.88
  -4  -4   1   22.15    1.64
  -4  -4   1   17.34    2.54
  -4  -4   1   17.88    5.25
  -4  -4   1   21.88    2.41
  -4  -4   2    8.31    1.89
  -4  -4   2   14.38    1.42
  -4  -4   2   14.56    1.97
  -4  -4   2    8.88    3.65
  -4  -4   2   14.59    1.38
  -4  -4   2   14.97    1.42
  -4  -4   2   14.94    1.28
  -4  -4   2   15.47    1.74
  -4  -4   3  167.19    9.46
  -4  -4   3  178.94    9.63
  -4  -4   3  147.06    9.27
  -4  -4   3  170.62    9.96
  -4  -4   3  159.52    9.44
  -4  -4   3  153.12    9.46
  -4  -4   4   33.78    2.44
  -4  -4   4   40.09    2.97
  -4  -4   4   32.04    2.52
  -4  -4   4   38.88    2.72
  -4  -4   4   34.63    2.93
  -4  -4   4   29.22    2.48
  -4  -4   5    5.96    1.01
  -4  -4   5    5.87    0.90
  -4  -4   5    4.12    1.04
  -4  -4   6    0.07    0.52
  -4  -4   6    0.06    0.42
  -4  -4   7  103.25    6.10
  -4  -4   7  104.51    6.07
  -4  -4   8   47.05    2.71
  -4  -3 -12    0.37    0.67
  -4  -3 -12    2.23    0.76
  -4  -3 -12    0.85    0.93
  -4  -3 -11    0.23    0.28
  -4  -3 -11    0.69    1.88
  -4  -3 -11    0.73    1.69
  -4  -3 -11    0.16    0.76
  -4  -3 -11   -0.35    0.90
  -4  -3 -10    0.54    0.98
  -4  -3 -10   -0.71    1.46
  -4  -3 -10    0.22    1.12
  -4  -3 -10    0.10    0.30
  -4  -3 -10    0.23    0.37
  -4  -3 -10   -1.88    1.82
  -4  -3 -10    0.29    0.78
  -4  -3 -10   -1.41    1.61
  -4  -3 -10   -0.89    2.76
  -4  -3 -10   -0.70    1.92
  -4  -3 -10   -0.39    0.90
  -4  -3  -9    6.54    1.73
  -4  -3  -9    7.45    1.82
  -4  -3  -9    7.24    0.84
  -4  -3  -9    7.97    0.98
  -4  -3  -9    8.69    2.08
  -4  -3  -9    5.70    2.32
  -4  -3  -9   11.90    2.91
  -4  -3  -9    9.11    1.95
  -4  -3  -9   12.35    3.03
  -4  -3  -9    7.45    3.37
  -4  -3  -9   10.63    3.73
  -4  -3  -9    7.92    1.84
  -4  -3  -8   27.38    3.49
  -4  -3  -8   30.68    3.37
  -4  -3  -8   29.03    3.41
  -4  -3  -8   27.28    2.09
  -4  -3  -8   33.27    2.27
  -4  -3  -8   32.23    4.67
  -4  -3  -8   29.18    3.82
  -4  -3  -8   31.37    4.79
  -4  -3  -8   29.03    4.52
  -4  -3  -8   28.93    3.55
  -4  -3  -8   31.60    3.31
  -4  -3  -8   28.52    6.00
  -4  -3  -8   30.71    6.19
  -4  -3  -7   -0.22    1.19
  -4  -3  -7    1.14    0.37
  -4  -3  -7    0.36    0.33
  -4  -3  -7   -0.41    1.52
  -4  -3  -7    0.31    0.71
  -4  -3  -7    1.29    1.61
  -4  -3  -7    1.11    1.00
  -4  -3  -7    1.58    2.47
  -4  -3  -7   -0.77    1.95
  -4  -3  -7    0.50    0.87
  -4  -3  -7    2.43    1.78
  -4  -3  -6   69.96    5.49
  -4  -3  -6   67.21    6.72
  -4  -3  -6   86.95    6.14
  -4  -3  -6   80.30    5.72
  -4  -3  -6   83.95    5.96
  -4  -3  -6   58.44    8.02
  -4  -3  -6   77.96    7.17
  -4  -3  -6   80.20    6.33
  -4  -3  -6   77.57    7.01
  -4  -3  -6   73.12    5.43
  -4  -3  -6   59.98    8.44
  -4  -3  -6   79.06    8.67
  -4  -3  -6   55.27    4.97
  -4  -3  -5   23.68    2.42
  -4  -3  -5   24.17    2.66
  -4  -3  -5   18.00    3.08
  -4  -3  -5   21.45    2.43
  -4  -3  -5   18.19    4.57
  -4  -3  -5   20.07    3.23
  -4  -3  -5   20.58    2.72
  -4  -3  -5   18.72    3.18
  -4  -3  -5   19.93    4.70
  -4  -3  -5   15.81    3.55
  -4  -3  -5   18.97    2.13
  -4  -3  -5   14.70    2.10
  -4  -3  -4  737.49   40.69
  -4  -3  -4  745.79   41.03
  -4  -3  -4  715.32   42.22
  -4  -3  -4  749.71   40.55
  -4  -3  -4  852.72   41.17
  -4  -3  -4  715.88   46.66
  -4  -3  -4  647.12   41.96
  -4  -3  -4  719.50   42.26
  -4  -3  -4  802.49   41.63
  -4  -3  -4  730.36   42.96
  -4  -3  -4  715.63   44.73
  -4  -3  -4  675.78   40.16
  -4  -3  -4  626.75   40.47
  -4  -3  -3   16.56    1.90
  -4  -3  -3   13.58    4.69
  -4  -3  -3   14.29    1.82
  -4  -3  -3   16.95    2.13
  -4  -3  -3   21.18    3.00
  -4  -3  -3   17.64    2.07
  -4  -3  -3   11.70    2.43
  -4  -3  -3   21.20    2.99
  -4  -3  -3   14.19    1.97
  -4  -3  -3   12.64    1.47
  -4  -3  -3   14.89    3.40
  -4  -3  -2   87.74   10.44
  -4  -3  -2   74.89    5.86
  -4  -3  -2   98.89    7.29
  -4  -3  -2   71.43    5.87
  -4  -3  -2   99.01    7.27
  -4  -3  -2  107.43    7.52
  -4  -3  -2   80.15    5.78
  -4  -3  -1    0.85    2.51
  -4  -3  -1    4.80    1.47
  -4  -3  -1    3.90    1.23
  -4  -3  -1    2.19    1.34
  -4  -3  -1    4.85    1.55
  -4  -3  -1    2.53    0.84
  -4  -3   0  125.09    9.06
  -4  -3   0  115.05    8.84
  -4  -3   0  112.68    8.85
  -4  -3   0  104.69    7.80
  -4  -3   0  138.65    8.47
  -4  -3   0  106.55   12.33
  -4  -3   1  122.57    8.75
  -4  -3   1  113.57   13.18
  -4  -3   2    0.35    0.38
  -4  -3   2    0.25    0.44
  -4  -3   2   -0.80    1.85
  -4  -3   2    0.19    0.70
  -4  -3   2    0.29    0.42
  -4  -3   2    0.15    0.82
  -4  -3   3    7.37    0.96
  -4  -3   3    7.08    1.18
  -4  -3   3    6.32    0.93
  -4  -3   3    6.53    0.91
  -4  -3   3    7.02    0.88
  -4  -3   3    6.19    1.39
  -4  -3   3    6.49    0.96
  -4  -3   4  189.40   12.33
  -4  -3   4  193.24   11.11
  -4  -3   4  203.81   11.30
  -4  -3   4  190.58   11.05
  -4  -3   4  176.62   11.46
  -4  -3   4  193.33   11.17
  -4  -3   5    6.98    1.13
  -4  -3   5    5.39    0.67
  -4  -3   5    4.73    1.05
  -4  -3   5    5.32    0.89
  -4  -3   5    4.41    0.85
  -4  -3   5    4.56    0.80
  -4  -3   6    5.40    0.94
  -4  -3   6    5.23    0.88
  -4  -3   7   23.54    1.92
  -4  -3   7   25.02    1.90
  -4  -3   8    0.34    0.34
  -4  -3   8    0.63    0.32
  -4  -2 -12   98.79    6.60
  -4  -2 -12  100.50    5.82
  -4  -2 -12  106.65    6.88
  -4  -2 -12  122.50    7.07
  -4  -2 -11    1.34    1.97
  -4  -2 -11    0.85    0.92
  -4  -2 -11    1.63    0.91
  -4  -2 -11    3.12    0.49
  -4  -2 -11    2.82    1.26
  -4  -2 -10   37.36    3.90
  -4  -2 -10   42.69    2.87
  -4  -2 -10   50.95    2.97
  -4  -2 -10   32.28    6.22
  -4  -2 -10   33.71    3.63
  -4  -2 -10   44.51    4.62
  -4  -2  -9  312.48   21.07
  -4  -2  -9  346.44   21.73
  -4  -2  -9  411.11   20.23
  -4  -2  -9  290.63   23.32
  -4  -2  -9  347.22   22.80
  -4  -2  -9  379.73   23.82
  -4  -2  -9  368.11   23.70
  -4  -2  -9  367.84   22.49
  -4  -2  -9  329.08   27.09
  -4  -2  -9  334.02   21.34
  -4  -2  -9  296.65   25.00
  -4  -2  -8  143.52   10.63
  -4  -2  -8  134.60   11.02
  -4  -2  -8  126.76   11.13
  -4  -2  -8  127.71   13.98
  -4  -2  -8  135.53    9.44
  -4  -2  -8  114.71   12.73
  -4  -2  -8  142.48   11.18
  -4  -2  -8  152.75   10.33
  -4  -2  -8  140.71    9.81
  -4  -2  -8  144.29    9.54
  -4  -2  -7   10.84    2.46
  -4  -2  -7    7.48    2.13
  -4  -2  -7    9.71    2.05
  -4  -2  -7    6.43    3.15
  -4  -2  -7    5.95    3.01
  -4  -2  -7    6.10    1.59
  -4  -2  -7    5.93    1.59
  -4  -2  -7    7.86    1.40
  -4  -2  -7    8.65    2.28
  -4  -2  -7    7.83    1.81
  -4  -2  -7    5.35    1.70
  -4  -2  -6  217.93   13.65
  -4  -2  -6  259.65   14.10
  -4  -2  -6  151.31   15.47
  -4  -2  -6  214.01   14.86
  -4  -2  -6  268.09   15.45
  -4  -2  -6  165.01   13.89
  -4  -2  -6  218.77   13.57
  -4  -2  -6  197.92   17.24
  -4  -2  -6  213.30   17.57
  -4  -2  -6  259.62   15.36
  -4  -2  -6  235.05   14.31
  -4  -2  -6  229.73   13.53
  -4  -2  -5 3187.38  160.79
  -4  -2  -5 3059.00  160.14
  -4  -2  -5 3502.92  162.07
  -4  -2  -5 3154.25  160.63
  -4  -2  -5 3321.56  160.58
  -4  -2  -5 3011.05  160.25
  -4  -2  -5 2442.68  164.02
  -4  -2  -5 3157.75  161.19
  -4  -2  -5 3023.04  161.40
  -4  -2  -5 3491.11  162.07
  -4  -2  -5 2085.20  159.54
  -4  -2  -5 3026.61  164.44
  -4  -2  -5 2848.78  160.01
  -4  -2  -5 2934.52  164.60
  -4  -2  -4  778.19   40.98
  -4  -2  -4  817.92   41.31
  -4  -2  -4  792.79   40.79
  -4  -2  -4  737.70   41.93
  -4  -2  -4  789.31   40.66
  -4  -2  -4  791.68   40.97
  -4  -2  -4  775.37   40.95
  -4  -2  -4  666.61   45.31
  -4  -2  -4  720.19   41.87
  -4  -2  -4  577.54   41.15
  -4  -2  -4  566.48   40.40
  -4  -2  -4  671.52   40.42
  -4  -2  -4  767.67   40.73
  -4  -2  -4  731.98   43.59
  -4  -2  -3  831.44   43.72
  -4  -2  -3  780.51   44.65
  -4  -2  -3  833.15   44.00
  -4  -2  -3  816.08   43.50
  -4  -2  -3  831.32   43.72
  -4  -2  -3  778.55   48.99
  -4  -2  -3  975.13   44.72
  -4  -2  -3  810.63   44.21
  -4  -2  -3  830.27   44.82
  -4  -2  -3  645.96   43.38
  -4  -2  -3  735.80   45.09
  -4  -2  -3  681.08   43.01
  -4  -2  -3  758.43   46.82
  -4  -2  -2   72.70    8.93
  -4  -2  -2   73.64    5.31
  -4  -2  -2   86.67    6.38
  -4  -2  -2   83.97    5.66
  -4  -2  -2   98.75    6.64
  -4  -2  -2   83.00    5.91
  -4  -2  -2   86.90    5.88
  -4  -2  -2   76.93    5.42
  -4  -2  -2   54.69    5.17
  -4  -2  -1  242.11   13.03
  -4  -2  -1  192.25   11.99
  -4  -2  -1  239.11   12.98
  -4  -2  -1  187.16   11.87
  -4  -2  -1  179.02   11.44
  -4  -2  -1  167.28   11.69
  -4  -2   0  432.40   30.68
  -4  -2   0  496.22   26.49
  -4  -2   0  500.68   26.49
  -4  -2   1  164.19   11.63
  -4  -2   1  193.28   16.52
  -4  -2   2   15.66    2.10
  -4  -2   2   24.25    2.62
  -4  -2   2   21.95    4.73
  -4  -2   3  254.41   13.92
  -4  -2   3  216.53   13.55
  -4  -2   3  268.41   13.66
  -4  -2   3  261.09   13.54
  -4  -2   3  208.83   13.55
  -4  -2   3  177.34   16.94
  -4  -2   3  244.27   15.00
  -4  -2   4  210.90   11.44
  -4  -2   4  194.50   11.56
  -4  -2   4  204.42   11.69
  -4  -2   4  185.53   11.84
  -4  -2   4  214.09   11.54
  -4  -2   4  204.95   11.44
  -4  -2   4  177.10   11.58
  -4  -2   4  220.94   13.20
  -4  -2   5  556.72   31.30
  -4  -2   5  597.99   31.82
  -4  -2   5  593.37   31.37
  -4  -2   5  609.95   31.68
  -4  -2   5  524.16   31.77
  -4  -2   5  535.67   31.37
  -4  -2   5  541.89   32.97
  -4  -2   6  332.13   17.46
  -4  -2   6  334.29   17.04
  -4  -2   6  271.09   17.00
  -4  -2   6  319.30   17.30
  -4  -2   6  269.96   17.12
  -4  -2   7   29.75    2.46
  -4  -2   7   33.50    2.25
  -4  -2   7   34.03    2.47
  -4  -2   8    0.94    0.42
  -4  -2   8    0.89    0.49
  -4  -2   9    9.02    0.75
  -4  -1 -12    0.55    0.22
  -4  -1 -11    1.57    0.42
  -4  -1 -11    1.73    0.87
  -4  -1 -11    0.61    1.67
  -4  -1 -11    0.39    1.33
  -4  -1 -11    1.62    1.14
  -4  -1 -10    3.46    0.58
  -4  -1 -10    3.58    1.35
  -4  -1 -10    1.40    1.07
  -4  -1 -10    4.83    2.78
  -4  -1 -10    4.57    2.63
  -4  -1 -10    2.84    0.48
  -4  -1 -10    3.62    1.63
  -4  -1  -9   52.07    5.93
  -4  -1  -9   62.87    5.77
  -4  -1  -9   60.83    5.19
  -4  -1  -9   48.14    4.74
  -4  -1  -9   54.22    6.03
  -4  -1  -9   64.28    6.05
  -4  -1  -9   39.37    7.53
  -4  -1  -9   50.65    4.62
  -4  -1  -9   56.45    3.53
  -4  -1  -9   76.73    5.94
  -4  -1  -8    2.96    1.12
  -4  -1  -8    3.20    1.43
  -4  -1  -8    2.66    1.58
  -4  -1  -8    3.12    1.35
  -4  -1  -8    4.53    1.47
  -4  -1  -8   -1.74    1.81
  -4  -1  -8    2.50    0.52
  -4  -1  -8    3.44    1.12
  -4  -1  -8    1.51    1.31
  -4  -1  -7   53.69    4.76
  -4  -1  -7   52.28    4.69
  -4  -1  -7   51.52    4.34
  -4  -1  -7   57.51    5.52
  -4  -1  -7   49.38    5.09
  -4  -1  -7   40.84    6.52
  -4  -1  -7   49.80    4.32
  -4  -1  -7   45.28    7.59
  -4  -1  -7   50.17    3.20
  -4  -1  -7   51.44    4.43
  -4  -1  -7   48.74    5.24
  -4  -1  -6    8.93    2.02
  -4  -1  -6    9.93    2.21
  -4  -1  -6   11.29    2.03
  -4  -1  -6    8.86    3.13
  -4  -1  -6   10.05    3.29
  -4  -1  -6    9.55    1.59
  -4  -1  -6   11.42    2.19
  -4  -1  -6   12.49    2.01
  -4  -1  -6    8.45    1.80
  -4  -1  -6    9.38    1.77
  -4  -1  -5   -0.16    0.93
  -4  -1  -5    0.16    0.97
  -4  -1  -5   -0.56    1.85
  -4  -1  -5    0.59    1.62
  -4  -1  -5    1.29    0.89
  -4  -1  -5    0.96    1.11
  -4  -1  -5   -0.32    0.78
  -4  -1  -5    0.96    1.14
  -4  -1  -5    0.52    1.78
  -4  -1  -4   58.23    4.17
  -4  -1  -4   60.71    4.89
  -4  -1  -4   50.44    4.12
  -4  -1  -4   61.80    4.26
  -4  -1  -4   55.39    4.30
  -4  -1  -4   56.05    4.22
  -4  -1  -4   40.09    6.08
  -4  -1  -4   53.14    4.31
  -4  -1  -4   61.49    4.92
  -4  -1  -4   61.84    4.81
  -4  -1  -4   53.49    5.65
  -4  -1  -4   52.20    6.17
  -4  -1  -4   50.22    6.16
  -4  -1  -4   49.57    3.94
  -4  -1  -4   38.55    3.73
  -4  -1  -3   -0.43    0.65
  -4  -1  -3   -0.19    0.88
  -4  -1  -3    0.27    0.62
  -4  -1  -3    0.25    0.82
  -4  -1  -3   -0.13    0.76
  -4  -1  -3   -0.61    2.19
  -4  -1  -3    0.36    0.56
  -4  -1  -3   -0.98    0.99
  -4  -1  -3    0.47    0.85
  -4  -1  -2    9.23    3.48
  -4  -1  -2   10.34    1.47
  -4  -1  -2   14.97    1.93
  -4  -1  -2   10.07    1.58
  -4  -1  -2   12.30    1.80
  -4  -1  -2   10.10    1.56
  -4  -1  -2   10.14    1.45
  -4  -1  -2    6.94    1.31
  -4  -1  -1   17.81    2.01
  -4  -1  -1   11.93    1.60
  -4  -1  -1   12.83    1.71
  -4  -1  -1   15.62    1.92
  -4  -1  -1   12.26    1.57
  -4  -1   0   16.74    2.02
  -4  -1   0   18.79    4.52
  -4  -1   0   19.77    1.84
  -4  -1   1   16.81    2.11
  -4  -1   1   20.23    4.41
  -4  -1   1   21.70    1.90
  -4  -1   2   71.24    8.41
  -4  -1   2   86.48    6.28
  -4  -1   3   72.49    8.42
  -4  -1   3  100.59    6.99
  -4  -1   4    6.14    1.02
  -4  -1   4    5.89    0.82
  -4  -1   4    7.14    0.85
  -4  -1   4    8.70    0.99
  -4  -1   4    6.00    0.86
  -4  -1   4    6.26    0.78
  -4  -1   4    6.81    0.84
  -4  -1   4    7.71    1.66
  -4  -1   4    7.50    0.90
  -4  -1   4    6.20    1.01
  -4  -1   4    8.84    1.02
  -4  -1   4    8.12    0.96
  -4  -1   5  350.98   19.53
  -4  -1   5  340.44   19.53
  -4  -1   5  345.74   21.33
  -4  -1   5  359.92   19.78
  -4  -1   5  352.86   19.70
  -4  -1   5  344.34   19.56
  -4  -1   6   53.13    3.81
  -4  -1   6   50.71    3.49
  -4  -1   6   59.34    3.81
  -4  -1   6   52.17    3.64
  -4  -1   6   56.07    3.57
  -4  -1   6   53.39    4.95
  -4  -1   7   27.58    2.17
  -4  -1   7   21.91    1.99
  -4  -1   7   25.41    2.17
  -4  -1   7   29.88    2.03
  -4  -1   8    9.40    1.13
  -4  -1   8   11.37    1.03
  -4  -1   9   31.55    2.14
  -4  -1   9   31.85    2.00
  -4   0 -12    0.58    0.18
  -4   0 -11    8.97    0.74
  -4   0 -11    8.47    0.82
  -4   0 -11    9.85    1.76
  -4   0 -10   35.95    6.08
  -4   0 -10   38.37    3.52
  -4   0 -10   37.75    2.54
  -4   0  -9    4.89    1.64
  -4   0  -9    4.49    1.30
  -4   0  -9    2.97    1.25
  -4   0  -9    7.02    3.42
  -4   0  -9    6.00    1.93
  -4   0  -9    4.72    0.69
  -4   0  -8  461.91   26.11
  -4   0  -8  423.83   25.12
  -4   0  -8  384.51   25.73
  -4   0  -8  404.50   24.67
  -4   0  -8  439.83   25.03
  -4   0  -8  454.34   26.38
  -4   0  -8  374.07   25.67
  -4   0  -8  369.98   29.70
  -4   0  -8  398.92   30.38
  -4   0  -8  501.72   25.80
  -4   0  -8  404.46   23.17
  -4   0  -7  140.46    9.89
  -4   0  -7  162.24   10.70
  -4   0  -7  143.69   10.52
  -4   0  -7  124.83    9.60
  -4   0  -7  134.87    9.14
  -4   0  -7  155.69    9.89
  -4   0  -7  136.97   10.43
  -4   0  -7  155.74   10.78
  -4   0  -7  143.10   14.07
  -4   0  -7  167.99   10.48
  -4   0  -7  137.63    8.23
  -4   0  -6   37.90    3.59
  -4   0  -6   37.82    3.89
  -4   0  -6   36.04    3.84
  -4   0  -6   30.62    3.05
  -4   0  -6   30.59    3.34
  -4   0  -6   29.22    3.54
  -4   0  -6   35.44    6.23
  -4   0  -6   36.45    6.09
  -4   0  -6   32.84    2.26
  -4   0  -6   34.58    3.64
  -4   0  -5    1.86    0.91
  -4   0  -5   -0.19    0.54
  -4   0  -5    0.43    0.87
  -4   0  -5   -0.17    0.92
  -4   0  -5    2.40    1.04
  -4   0  -5   -0.85    1.60
  -4   0  -5    1.24    0.91
  -4   0  -5    0.25    0.64
  -4   0  -5    2.82    2.03
  -4   0  -5    0.63    1.74
  -4   0  -5   -0.73    1.13
  -4   0  -4  100.72    6.46
  -4   0  -4   88.70    8.77
  -4   0  -4   86.96    6.21
  -4   0  -4   91.98    6.20
  -4   0  -4   78.50    8.60
  -4   0  -4   90.05    8.36
  -4   0  -4   96.63    6.61
  -4   0  -4  100.84    6.97
  -4   0  -4   90.61    6.54
  -4   0  -4   91.15    6.44
  -4   0  -4   96.94    6.73
  -4   0  -4   75.65    6.10
  -4   0  -3   11.78    3.31
  -4   0  -3   12.35    1.58
  -4   0  -3   13.92    1.69
  -4   0  -3   11.86    1.67
  -4   0  -3   11.10    2.30
  -4   0  -3   10.05    1.84
  -4   0  -3    9.15    1.57
  -4   0  -3   11.88    1.66
  -4   0  -3   11.32    1.66
  -4   0  -3   15.65    1.96
  -4   0  -2  379.58   23.03
  -4   0  -2  450.42   22.76
  -4   0  -2  427.73   23.27
  -4   0  -2  396.32   23.18
  -4   0  -2  429.67   22.72
  -4   0  -2  342.21   22.61
  -4   0  -2  318.47   25.96
  -4   0  -1   16.16    3.96
  -4   0  -1   19.67    2.05
  -4   0  -1   16.75    1.90
  -4   0  -1   14.27    1.73
  -4   0   0  200.40   11.50
  -4   0   0  159.20   14.85
  -4   0   1   89.22    6.29
  -4   0   1   82.29    8.83
  -4   0   2  196.81   12.62
  -4   0   2  184.70   15.47
  -4   0   2  229.49   13.21
  -4   0   3  111.44    6.34
  -4   0   3  121.14    7.19
  -4   0   4   30.11    2.38
  -4   0   4   30.79    2.28
  -4   0   4   28.28    3.26
  -4   0   4   29.78    2.25
  -4   0   4   24.59    2.09
  -4   0   4   33.20    2.22
  -4   0   4   32.30    2.33
  -4   0   5  170.68   10.49
  -4   0   5  163.99   10.34
  -4   0   5  175.75   10.33
  -4   0   5  195.85   10.34
  -4   0   5  158.30   11.77
  -4   0   5  166.49   10.22
  -4   0   5  173.72   10.23
  -4   0   5  182.76   10.35
  -4   0   5  181.94   10.25
  -4   0   5  193.24   10.40
  -4   0   6    6.15    0.90
  -4   0   6    6.01    0.94
  -4   0   6    4.65    0.86
  -4   0   6    4.79    1.45
  -4   0   6    6.63    0.86
  -4   0   6    6.75    0.87
  -4   0   6    6.90    0.89
  -4   0   6    6.73    0.89
  -4   0   7    4.09    0.71
  -4   0   7    2.64    0.68
  -4   0   7    3.77    0.80
  -4   0   7    3.04    0.68
  -4   0   7    4.01    0.88
  -4   0   8   14.28    1.25
  -4   0   8   11.77    1.31
  -4   0   9    1.55    0.44
  -4   0   9    1.89    0.54
  -4   1 -11   -0.02    0.19
  -4   1 -11    0.12    0.25
  -4   1 -11   -0.35    0.95
  -4   1 -10    0.70    1.23
  -4   1 -10    2.18    0.45
  -4   1 -10    2.99    1.17
  -4   1 -10    2.79    1.53
  -4   1  -9    6.14    1.47
  -4   1  -9    3.60    1.86
  -4   1  -9    4.02    2.66
  -4   1  -9    8.25    2.20
  -4   1  -9    5.96    0.77
  -4   1  -8   13.83    2.49
  -4   1  -8   10.33    2.03
  -4   1  -8    7.13    3.40
  -4   1  -8   11.73    2.13
  -4   1  -8   17.22    3.00
  -4   1  -8   12.92    1.22
  -4   1  -7    9.23    2.06
  -4   1  -7    6.47    1.61
  -4   1  -7    7.62    1.76
  -4   1  -7    5.96    1.98
  -4   1  -7    6.92    3.38
  -4   1  -6   12.34    2.11
  -4   1  -6   12.44    2.23
  -4   1  -6    8.56    1.48
  -4   1  -6   11.67    2.02
  -4   1  -6   10.59    2.22
  -4   1  -6   18.38    2.57
  -4   1  -6   15.26    4.16
  -4   1  -5    1.53    0.82
  -4   1  -5    1.14    0.98
  -4   1  -5    2.73    1.08
  -4   1  -5    0.52    0.80
  -4   1  -5    0.38    1.20
  -4   1  -5    2.45    1.06
  -4   1  -5    3.17    2.08
  -4   1  -5    0.84    1.48
  -4   1  -5   -0.20    1.20
  -4   1  -4   16.07    2.17
  -4   1  -4   21.87    2.51
  -4   1  -4   17.32    2.24
  -4   1  -4   15.29    2.13
  -4   1  -4   15.91    1.92
  -4   1  -4   16.96    3.44
  -4   1  -4   20.67    2.57
  -4   1  -4   17.21    1.98
  -4   1  -4   15.62    3.44
  -4   1  -3   36.60    3.27
  -4   1  -3   36.99    3.27
  -4   1  -3   31.48    2.88
  -4   1  -3   30.79    2.80
  -4   1  -3   35.52    3.37
  -4   1  -3   34.85    3.10
  -4   1  -3   33.83    4.95
  -4   1  -3   31.25    2.92
  -4   1  -2   22.13    4.03
  -4   1  -2   17.45    1.89
  -4   1  -2   21.60    2.23
  -4   1  -2   19.47    2.39
  -4   1  -2   15.75    2.11
  -4   1  -2   27.29    2.69
  -4   1  -2   21.05    2.24
  -4   1  -2   16.70    2.11
  -4   1  -1 1699.71  103.87
  -4   1  -1 1696.63   99.79
  -4   1  -1 1923.50  100.89
  -4   1  -1 1946.23  100.86
  -4   1  -1 1762.48  100.34
  -4   1  -1 1896.80  100.42
  -4   1  -1 1862.07  100.29
  -4   1  -1 1842.66  100.17
  -4   1   0  245.00   12.46
  -4   1   0  172.28   11.16
  -4   1   1   24.86    2.69
  -4   1   1   21.71    4.15
  -4   1   1   26.35    2.89
  -4   1   1   21.61    2.53
  -4   1   1   24.85    2.86
  -4   1   1   26.27    2.09
  -4   1   2  340.14   23.45
  -4   1   2  362.48   20.79
  -4   1   2  338.73   20.24
  -4   1   3  208.15   11.57
  -4   1   3  191.60   13.74
  -4   1   3  208.93   10.80
  -4   1   4   37.50    2.48
  -4   1   4   27.96    2.37
  -4   1   4   34.01    2.38
  -4   1   4   29.23    2.24
  -4   1   4   33.62    2.36
  -4   1   4   30.23    2.25
  -4   1   4   35.25    2.32
  -4   1   5   47.05    3.37
  -4   1   5   47.49    3.29
  -4   1   5   54.89    3.36
  -4   1   5   46.29    3.44
  -4   1   5   52.44    3.32
  -4   1   5   49.53    3.39
  -4   1   5   47.16    3.27
  -4   1   5   52.41    3.39
  -4   1   5   48.78    3.27
  -4   1   6   30.84    2.23
  -4   1   6   28.71    2.15
  -4   1   6   22.36    3.14
  -4   1   6   29.22    2.17
  -4   1   6   29.59    2.14
  -4   1   6   28.85    2.14
  -4   1   6   24.10    2.08
  -4   1   6   26.42    2.21
  -4   1   7   54.36    3.65
  -4   1   7   58.47    3.75
  -4   1   7   63.99    3.83
  -4   1   7   59.10    3.72
  -4   1   7   61.35    3.70
  -4   1   8    0.60    0.44
  -4   1   8    0.85    0.55
  -4   1   9   31.97    2.19
  -4   1   9   30.21    2.12
  -4   1   9   29.72    2.23
  -4   2 -11   72.24    4.43
  -4   2 -11   92.10    4.53
  -4   2 -10   19.75    1.40
  -4   2 -10   17.96    2.25
  -4   2  -9   32.81    2.12
  -4   2  -9   26.96    3.20
  -4   2  -9   22.20    2.84
  -4   2  -9   26.17    3.30
  -4   2  -8    7.81    2.18
  -4   2  -8   10.32    2.13
  -4   2  -8    9.48    2.48
  -4   2  -8   12.85    1.22
  -4   2  -8   12.47    2.25
  -4   2  -8   13.23    2.27
  -4   2  -7    1.80    1.76
  -4   2  -7    6.80    1.94
  -4   2  -7    4.56    2.03
  -4   2  -7    5.14    2.96
  -4   2  -7    5.44    1.60
  -4   2  -7    6.95    1.67
  -4   2  -6    7.19    0.84
  -4   2  -6    2.88    1.78
  -4   2  -6    6.96    1.84
  -4   2  -6    7.46    2.16
  -4   2  -6    8.71    1.70
  -4   2  -6    6.36    1.67
  -4   2  -6    6.08    1.71
  -4   2  -5  137.14    7.82
  -4   2  -5  127.26    9.43
  -4   2  -5  122.28    9.12
  -4   2  -5  123.26    9.11
  -4   2  -5  134.46    9.38
  -4   2  -5  132.24    9.92
  -4   2  -5  120.00   12.35
  -4   2  -5  148.15    9.81
  -4   2  -5  149.04    9.62
  -4   2  -4   33.70    3.53
  -4   2  -4   36.11    3.75
  -4   2  -4   34.19    3.51
  -4   2  -4   43.31    3.24
  -4   2  -4   40.69    4.09
  -4   2  -4   40.57    3.86
  -4   2  -4   43.56    3.85
  -4   2  -4   44.90    4.04
  -4   2  -3  427.96   29.54
  -4   2  -3  502.30   29.49
  -4   2  -3  503.59   29.31
  -4   2  -3  516.01   30.28
  -4   2  -3  537.77   30.48
  -4   2  -3  635.98   29.86
  -4   2  -3  525.23   30.46
  -4   2  -3  597.22   33.63
  -4   2  -3  526.31   30.30
  -4   2  -3  533.46   29.96
  -4   2  -2   12.55    1.66
  -4   2  -2   15.22    2.02
  -4   2  -2   13.06    1.54
  -4   2  -2   13.09    1.78
  -4   2  -2   13.07    2.06
  -4   2  -2   11.52    1.93
  -4   2  -2   13.26    1.84
  -4   2  -2   11.21    3.12
  -4   2  -2   13.63    1.79
  -4   2  -1 2332.47  126.69
  -4   2  -1 1958.23  126.12
  -4   2  -1 2342.45  126.19
  -4   2  -1 2264.34  126.40
  -4   2  -1 2467.16  130.72
  -4   2  -1 2371.20  127.01
  -4   2  -1 2279.29  126.32
  -4   2  -1 2493.54  127.42
  -4   2  -1 2556.72  126.76
  -4   2  -1 2454.72  127.35
  -4   2   0  352.95   20.37
  -4   2   0  336.59   20.11
  -4   2   0  339.02   20.66
  -4   2   0  389.48   20.99
  -4   2   0  382.76   24.47
  -4   2   0  364.15   21.36
  -4   2   0  391.27   21.49
  -4   2   1  203.57   16.65
  -4   2   1  248.17   13.95
  -4   2   1  224.73   13.21
  -4   2   1  227.32   13.70
  -4   2   1  213.22   14.17
  -4   2   1  220.16   14.23
  -4   2   2  153.20   11.49
  -4   2   2  130.75    8.01
  -4   2   2  157.43    8.01
  -4   2   2  132.07    8.49
  -4   2   2  126.40    8.38
  -4   2   3  174.51   10.49
  -4   2   3  194.12   13.56
  -4   2   3  159.98   10.45
  -4   2   3  218.24   10.26
  -4   2   3  158.82   10.44
  -4   2   3  126.37    8.99
  -4   2   4  153.33    8.91
  -4   2   4  162.01    9.02
  -4   2   4  155.73    9.09
  -4   2   4  152.68   10.44
  -4   2   4  147.73    8.98
  -4   2   4  150.88    8.99
  -4   2   5   22.78    1.76
  -4   2   5   17.94    1.65
  -4   2   5   20.33    1.78
  -4   2   5   21.22    1.76
  -4   2   5   17.67    1.79
  -4   2   5   23.28    1.82
  -4   2   5   23.94    1.83
  -4   2   5   18.09    1.77
  -4   2   5   23.45    2.96
  -4   2   5   24.11    1.80
  -4   2   5   17.36    1.72
  -4   2   6  111.35    6.67
  -4   2   6  117.67    6.81
  -4   2   6  101.37    6.85
  -4   2   6  116.27    6.84
  -4   2   6  118.60    6.71
  -4   2   6  106.77    6.78
  -4   2   6  108.49    6.62
  -4   2   6   91.55    8.11
  -4   2   7   83.84    5.51
  -4   2   7  101.68    5.73
  -4   2   8    0.62    0.37
  -4   2   8    0.78    0.57
  -4   2   8    0.90    0.52
  -4   2   9    4.89    0.80
  -4   3 -10   15.66    1.12
  -4   3 -10   16.34    1.11
  -4   3  -9   32.31    3.22
  -4   3  -9   32.77    2.19
  -4   3  -9   34.33    3.09
  -4   3  -8   12.66    2.45
  -4   3  -8   15.10    1.31
  -4   3  -8   14.55    2.38
  -4   3  -7   10.90    1.08
  -4   3  -7    8.59    0.94
  -4   3  -7    6.42    1.46
  -4   3  -7   11.39    2.34
  -4   3  -7    7.17    1.78
  -4   3  -7    7.52    2.27
  -4   3  -6    1.32    1.69
  -4   3  -6    3.52    0.63
  -4   3  -6    2.16    1.25
  -4   3  -6    1.65    1.69
  -4   3  -6    1.48    1.17
  -4   3  -6    3.74    1.25
  -4   3  -6    3.36    1.20
  -4   3  -6    0.59    0.87
  -4   3  -5    5.59    2.02
  -4   3  -5    5.15    1.49
  -4   3  -5    6.28    1.94
  -4   3  -5    6.49    0.87
  -4   3  -5    6.33    0.87
  -4   3  -5    8.91    2.00
  -4   3  -5    5.08    1.48
  -4   3  -5    7.19    1.55
  -4   3  -4   64.27    5.81
  -4   3  -4   82.73    5.95
  -4   3  -4   76.02    5.57
  -4   3  -4   71.33    6.10
  -4   3  -4   67.11    5.94
  -4   3  -4   76.21    4.64
  -4   3  -4   71.66    4.61
  -4   3  -4   75.70    6.45
  -4   3  -4   76.20    6.29
  -4   3  -4   82.32    5.86
  -4   3  -4   76.39    6.33
  -4   3  -3  178.28   10.85
  -4   3  -3  171.98   10.56
  -4   3  -3  143.35   10.24
  -4   3  -3  162.87   11.16
  -4   3  -3  166.40   11.26
  -4   3  -3  161.11    9.48
  -4   3  -3  163.30    9.50
  -4   3  -3  167.89   11.17
  -4   3  -3  185.11   11.42
  -4   3  -3  173.02   11.24
  -4   3  -3  169.08   10.44
  -4   3  -2  360.34   23.91
  -4   3  -2  469.03   25.37
  -4   3  -2  446.82   25.25
  -4   3  -2  436.58   24.34
  -4   3  -2  419.61   24.57
  -4   3  -2  426.57   24.93
  -4   3  -2  436.77   25.19
  -4   3  -1    0.47    0.70
  -4   3  -1    1.19    0.93
  -4   3  -1    2.13    0.94
  -4   3  -1    0.26    0.43
  -4   3  -1    0.89    0.46
  -4   3  -1    1.18    0.69
  -4   3   0    0.24    0.78
  -4   3   0    0.47    0.65
  -4   3   0    0.63    0.51
  -4   3   0    1.78    0.81
  -4   3   0    1.95    1.01
  -4   3   0    0.12    0.42
  -4   3   1   81.76    4.97
  -4   3   1   85.62    5.50
  -4   3   2   96.01    6.57
  -4   3   2  122.83    6.86
  -4   3   2  107.25    8.14
  -4   3   2  116.59    8.29
  -4   3   2  111.75    7.46
  -4   3   3   25.73    2.99
  -4   3   3   23.83    2.93
  -4   3   3   21.69    2.52
  -4   3   3   21.54    1.89
  -4   3   4  222.29   12.00
  -4   3   4  185.11   13.19
  -4   3   4  208.81   13.45
  -4   3   4  210.25   11.83
  -4   3   4  199.47   11.90
  -4   3   4  229.82   12.02
  -4   3   4  189.82   13.05
  -4   3   4  174.17   11.85
  -4   3   4  215.94   11.71
  -4   3   5   27.83    2.03
  -4   3   5   22.01    1.93
  -4   3   5   19.69    1.78
  -4   3   5   21.00    1.98
  -4   3   5   22.91    1.88
  -4   3   5   23.76    2.06
  -4   3   5   26.04    2.05
  -4   3   5   23.41    1.81
  -4   3   5   20.16    2.81
  -4   3   5   28.53    1.92
  -4   3   5   22.79    1.98
  -4   3   6   27.60    2.05
  -4   3   6   28.46    2.23
  -4   3   6   29.34    2.19
  -4   3   6   25.44    1.93
  -4   3   6   21.96    2.12
  -4   3   6   21.11    1.93
  -4   3   6   27.46    2.13
  -4   3   7   82.32    5.16
  -4   3   7   87.11    5.28
  -4   3   7   88.23    5.31
  -4   3   7   93.50    5.27
  -4   3   7   72.13    4.95
  -4   3   7   76.21    5.35
  -4   3   7   84.52    5.16
  -4   3   7   84.25    5.23
  -4   3   8   19.27    1.59
  -4   3   8   18.93    1.58
  -4   3   9  135.42    7.85
  -4   4  -9   14.51    1.05
  -4   4  -9   13.32    1.59
  -4   4  -9   15.91    1.09
  -4   4  -8    9.82    1.79
  -4   4  -8    9.21    0.81
  -4   4  -7   33.46    3.49
  -4   4  -7   26.80    1.97
  -4   4  -7   26.53    3.04
  -4   4  -6  125.88    7.55
  -4   4  -6  127.41    7.52
  -4   4  -6  123.83    8.89
  -4   4  -6  125.58    8.18
  -4   4  -6  124.09    9.56
  -4   4  -6  141.71    9.35
  -4   4  -5  129.04    8.98
  -4   4  -5  124.68    7.25
  -4   4  -5  119.78    7.24
  -4   4  -5  110.86    9.30
  -4   4  -5  138.82    8.87
  -4   4  -5  109.66    7.96
  -4   4  -5  124.62    9.24
  -4   4  -5  115.30    9.16
  -4   4  -4   50.76    4.64
  -4   4  -4   46.41    4.35
  -4   4  -4   43.45    3.94
  -4   4  -4   46.54    3.16
  -4   4  -4   50.29    3.23
  -4   4  -4   41.77    4.70
  -4   4  -4   44.35    4.71
  -4   4  -4   49.19    4.90
  -4   4  -3    3.39    1.29
  -4   4  -3    4.80    1.65
  -4   4  -3    3.73    1.41
  -4   4  -3    3.20    0.65
  -4   4  -3    2.40    1.05
  -4   4  -3    3.22    1.20
  -4   4  -3    3.00    0.65
  -4   4  -3    3.99    0.66
  -4   4  -3    3.53    1.24
  -4   4  -3    3.15    1.17
  -4   4  -3    3.95    0.73
  -4   4  -2   10.82    1.15
  -4   4  -2   10.12    1.57
  -4   4  -2   10.69    2.00
  -4   4  -2    7.57    1.67
  -4   4  -2   10.98    1.71
  -4   4  -2    8.88    1.10
  -4   4  -2    8.83    0.96
  -4   4  -2   10.61    1.08
  -4   4  -2    8.32    1.92
  -4   4  -2    9.51    1.97
  -4   4  -2   10.27    2.03
  -4   4  -2    7.38    1.51
  -4   4  -1  120.18    6.90
  -4   4  -1  117.75    8.71
  -4   4  -1  119.39    8.75
  -4   4  -1   96.07    6.80
  -4   4  -1  128.59    7.62
  -4   4  -1  120.28    8.20
  -4   4   0   94.33    5.33
  -4   4   0   82.10    6.90
  -4   4   0   88.53    7.05
  -4   4   0   85.59    5.15
  -4   4   0   80.76    6.26
  -4   4   0   72.78    5.23
  -4   4   1   28.19    2.13
  -4   4   1   27.72    2.07
  -4   4   1   30.25    2.22
  -4   4   1   25.84    2.43
  -4   4   1   26.27    2.19
  -4   4   2   38.23    2.93
  -4   4   2   44.42    3.01
  -4   4   2   35.71    3.29
  -4   4   2   47.16    3.04
  -4   4   2   39.59    2.78
  -4   4   2   40.47    4.50
  -4   4   2   38.08    4.33
  -4   4   2   44.14    3.32
  -4   4   3  220.65   11.73
  -4   4   3  192.72   11.28
  -4   4   3  205.89   11.23
  -4   4   3  187.51   11.22
  -4   4   3  195.66   11.10
  -4   4   3  193.12   11.00
  -4   4   3  181.10   10.86
  -4   4   3  198.11   11.24
  -4   4   3  166.79   11.85
  -4   4   3  198.44   13.25
  -4   4   3  174.53   12.93
  -4   4   4  191.38   10.32
  -4   4   4  185.58   10.15
  -4   4   4  171.21   10.10
  -4   4   4  175.58    9.92
  -4   4   4  160.68   11.80
  -4   4   4  158.07   11.73
  -4   4   4  143.71   10.97
  -4   4   4  161.28   10.17
  -4   4   4  175.95   10.22
  -4   4   5   23.99    1.87
  -4   4   5   22.18    1.82
  -4   4   5   21.76    2.07
  -4   4   5   21.82    2.01
  -4   4   5   19.25    2.74
  -4   4   5   16.18    2.59
  -4   4   6   41.27    2.95
  -4   4   6   43.45    3.22
  -4   4   6   43.68    3.17
  -4   4   6   47.05    3.20
  -4   4   7    5.72    0.92
  -4   4   7    4.59    0.75
  -4   4   7    5.10    0.89
  -4   4   7    4.43    0.99
  -4   4   7    4.81    0.83
  -4   4   7    5.17    0.82
  -4   4   8   11.71    1.23
  -4   4   8   11.78    1.23
  -4   4   8   14.31    1.25
  -4   4   9   69.47    4.27
  -4   5  -8   32.79    1.75
  -4   5  -8   23.40    1.57
  -4   5  -7   51.61    3.19
  -4   5  -7   51.47    3.15
  -4   5  -7   46.29    4.07
  -4   5  -6  413.54   22.97
  -4   5  -6  414.65   22.98
  -4   5  -6  405.98   24.34
  -4   5  -5  289.55   16.11
  -4   5  -5  279.87   16.14
  -4   5  -5  296.23   17.72
  -4   5  -5  279.63   18.15
  -4   5  -4  336.61   17.41
  -4   5  -4  292.33   16.43
  -4   5  -4  288.42   18.76
  -4   5  -4  276.20   16.36
  -4   5  -4  286.27   16.48
  -4   5  -4  278.97   18.39
  -4   5  -4  306.71   18.07
  -4   5  -3  127.59    8.84
  -4   5  -3  130.07    7.53
  -4   5  -3  119.15    7.32
  -4   5  -3  124.41    7.47
  -4   5  -3  124.79    9.58
  -4   5  -3  125.15    9.16
  -4   5  -3  101.32    8.95
  -4   5  -3  112.59    9.13
  -4   5  -2   36.59    4.15
  -4   5  -2   31.74    4.01
  -4   5  -2   35.60    2.71
  -4   5  -2   34.48    3.80
  -4   5  -2   34.24    2.47
  -4   5  -2   42.52    2.70
  -4   5  -1    8.00    2.07
  -4   5  -1    6.13    1.85
  -4   5  -1    8.37    1.08
  -4   5  -1    5.11    1.31
  -4   5  -1    8.03    0.85
  -4   5  -1    7.92    0.98
  -4   5  -1    9.74    1.11
  -4   5   0   96.22    8.06
  -4   5   0   89.29    7.89
  -4   5   0   96.86    6.10
  -4   5   0   96.95    6.01
  -4   5   0   90.57    5.92
  -4   5   0   87.51    6.93
  -4   5   0   85.22    6.46
  -4   5   1    3.93    1.49
  -4   5   1    2.97    1.38
  -4   5   1    3.09    1.08
  -4   5   1    2.98    0.65
  -4   5   1    2.99    0.70
  -4   5   1    3.89    0.82
  -4   5   2  187.82   10.02
  -4   5   2  155.78    9.78
  -4   5   2  167.21    9.94
  -4   5   2  164.86   10.38
  -4   5   2  154.87   12.02
  -4   5   2  163.39   12.14
  -4   5   2  170.74    9.94
  -4   5   2  167.12    9.71
  -4   5   2  164.26    9.71
  -4   5   3  161.78   10.06
  -4   5   3  188.40   10.61
  -4   5   3  203.63   11.26
  -4   5   3  167.87   12.60
  -4   5   3  167.13   12.64
  -4   5   3  186.14   10.62
  -4   5   3  189.66   10.34
  -4   5   3  181.00   10.41
  -4   5   4  746.62   41.72
  -4   5   4  693.57   43.84
  -4   5   4  676.40   43.81
  -4   5   4  738.93   41.44
  -4   5   4  703.36   41.64
  -4   5   5   80.92    5.05
  -4   5   5   79.22    5.23
  -4   5   5   81.27    4.86
  -4   5   5   83.71    5.24
  -4   5   5   84.23    5.15
  -4   5   5   58.82    6.25
  -4   5   5   66.13    6.42
  -4   5   6   26.36    2.13
  -4   5   6   22.66    1.82
  -4   5   6   24.10    2.18
  -4   5   6   27.23    2.19
  -4   5   6   23.77    1.87
  -4   5   7  162.51   10.16
  -4   5   7  183.11   10.16
  -4   5   7  187.28   10.29
  -4   5   7  164.23   10.21
  -4   5   8    3.32    0.62
  -4   5   8    2.84    0.65
  -4   5   8    2.92    0.67
  -4   5   8    3.34    0.70
  -4   5   9   -0.11    0.30
  -4   6  -7   12.57    0.87
  -4   6  -7   11.75    0.86
  -4   6  -6   21.68    1.55
  -4   6  -6   23.72    1.62
  -4   6  -5    4.63    0.69
  -4   6  -5    3.99    0.59
  -4   6  -4    6.43    0.80
  -4   6  -4    7.05    0.80
  -4   6  -4    7.45    0.93
  -4   6  -3  120.14    6.80
  -4   6  -3   98.63    8.01
  -4   6  -3  106.89    6.53
  -4   6  -3  115.08    6.77
  -4   6  -2   26.34    3.83
  -4   6  -2   28.96    3.99
  -4   6  -2   40.05    2.84
  -4   6  -2   40.63    2.53
  -4   6  -1   25.97    3.76
  -4   6  -1   27.46    3.82
  -4   6  -1   34.34    2.66
  -4   6  -1   30.27    2.48
  -4   6   0    0.15    0.83
  -4   6   0    0.35    0.82
  -4   6   0    0.71    0.73
  -4   6   0    1.04    0.59
  -4   6   0   -0.08    0.45
  -4   6   0    0.52    0.48
  -4   6   0    0.79    0.51
  -4   6   1   47.49    4.14
  -4   6   1   42.17    5.15
  -4   6   1   45.73    5.36
  -4   6   1   54.07    3.65
  -4   6   1   47.54    3.44
  -4   6   1   49.34    3.64
  -4   6   2   43.50    3.28
  -4   6   2   35.76    3.51
  -4   6   2   49.53    3.34
  -4   6   2   44.87    3.05
  -4   6   2   46.26    3.07
  -4   6   2   45.47    3.84
  -4   6   3   68.76    4.93
  -4   6   3   63.67    4.21
  -4   6   3   50.97    5.87
  -4   6   3   51.36    5.89
  -4   6   3   64.42    4.32
  -4   6   3   63.23    3.99
  -4   6   3   60.10    4.07
  -4   6   3   65.60    4.31
  -4   6   4    1.50    0.71
  -4   6   4    1.04    0.96
  -4   6   4    2.80    1.31
  -4   6   4    2.09    0.66
  -4   6   4    1.19    0.71
  -4   6   4    0.90    0.56
  -4   6   5   11.65    1.31
  -4   6   6    6.97    0.90
  -4   6   6    9.51    1.22
  -4   6   7   40.49    2.82
  -4   6   7   36.74    2.73
  -4   6   8    8.22    0.98
  -4   6   8    8.58    0.99
  -4   6   8    8.74    0.91
  -4   6   8    9.57    1.00
  -4   6   9   44.83    2.70
  -4   6   9   42.83    2.70
  -4   6   9   42.43    2.63
  -4   7  -6    0.68    0.20
  -4   7  -5   16.05    1.15
  -4   7  -5   11.61    1.42
  -4   7  -4   12.57    1.13
  -4   7  -3   30.19    2.15
  -4   7  -2    0.25    0.43
  -4   7  -2    0.14    0.41
  -4   7  -2    0.27    0.80
  -4   7  -1   43.90    3.01
  -4   7  -1   48.01    3.18
  -4   7   0   41.46    2.97
  -4   7   0   45.54    3.04
  -4   7   0   47.54    3.23
  -4   7   0   38.36    3.58
  -4   7   1  111.14    6.73
  -4   7   1  111.74    6.86
  -4   7   1  119.49    7.01
  -4   7   1  104.54    7.46
  -4   7   2    4.11    0.84
  -4   7   2    2.92    0.62
  -4   7   2    3.59    0.64
  -4   7   2    2.60    0.78
  -4   7   2    3.30    1.26
  -4   7   3    2.45    0.49
  -4   7   3    1.72    0.56
  -4   7   3    2.06    0.71
  -4   7   3    2.07    0.67
  -4   7   3    0.30    0.90
  -4   7   4    6.52    0.98
  -4   7   4    7.84    1.12
  -4   7   4    6.21    0.92
  -4   7   5    4.40    0.87
  -4   7   5    4.40    0.77
  -4   7   6    6.38    0.95
  -4   7   6    5.84    0.87
  -4   7   7   72.80    4.51
  -4   7   8   45.67    2.84
  -4   7   8   40.11    2.67
  -4   7   8   45.68    2.79
  -4   7   9   36.06    2.20
  -4   7   9   36.49    2.22
  -4   8  -3    0.95    0.35
  -4   8  -3    1.10    0.26
  -4   8  -3    0.96    0.57
  -4   8  -2    8.87    0.90
  -4   8  -2    8.83    0.89
  -4   8  -2    9.27    1.30
  -4   8  -1    8.43    0.88
  -4   8  -1    8.17    0.95
  -4   8  -1    7.86    1.31
  -4   8   0    0.34    0.36
  -4   8   0   -0.07    0.44
  -4   8   0    0.12    0.68
  -4   8   1    1.72    0.46
  -4   8   1    1.62    0.59
  -4   8   1    2.00    0.86
  -4   8   2   17.15    1.99
  -4   8   3    0.27    0.53
  -4   8   3    0.09    0.33
  -4   8   3    0.14    0.45
  -4   8   3    0.76    0.83
  -4   8   4    2.13    0.60
  -4   8   4    2.20    0.53
  -4   8   5    7.00    0.87
  -4   8   6    4.07    0.61
  -4   8   7  205.83   11.81
  -4   8   7  215.64   11.79
  -4   8   8    2.00    0.35
  -4   9  -1    2.75    0.35
  -4   9  -1    5.92    0.53
  -4   9   0   35.60    2.61
  -4   9   0   33.98    2.27
  -4   9   1   19.17    1.91
  -4   9   1   23.08    1.63
  -4   9   2  105.48    6.59
  -4   9   3    0.32    0.33
  -4   9   4    5.31    0.52
  -4   9   4    6.65    0.72
  -4   9   5   36.91    2.39
  -4   9   5   44.92    2.52
  -4   9   6   18.85    1.20
  -4   9   6   18.10    1.27
  -4   9   7   18.32    1.17
  -3 -11  -6    7.16    0.67
  -3 -11  -5    2.48    0.43
  -3 -11  -4    1.65    0.34
  -3 -10  -9    3.73    0.64
  -3 -10  -8   23.36    1.91
  -3 -10  -7    7.96    1.12
  -3 -10  -7    6.64    1.36
  -3 -10  -6   41.00    2.76
  -3 -10  -6   26.80    2.97
  -3 -10  -5   -0.16    0.93
  -3 -10  -5    0.72    0.63
  -3 -10  -4   10.15    1.22
  -3 -10  -3   25.42    2.01
  -3 -10  -3   20.84    2.62
  -3 -10  -2   17.03    1.47
  -3 -10  -2   13.89    1.86
  -3 -10  -1   39.92    2.68
  -3 -10   0    0.84    0.33
  -3  -9 -11    1.39    0.42
  -3  -9 -10    0.85    0.61
  -3  -9 -10    0.48    0.72
  -3  -9  -9    0.37    0.70
  -3  -9  -9   -0.15    0.82
  -3  -9  -8    3.32    1.14
  -3  -9  -8    2.05    2.02
  -3  -9  -8    4.59    1.05
  -3  -9  -8    2.59    1.05
  -3  -9  -8    2.62    1.16
  -3  -9  -7   26.17    2.77
  -3  -9  -7   23.58    2.88
  -3  -9  -7   23.70    2.74
  -3  -9  -7   25.48    5.25
  -3  -9  -7   36.77    2.78
  -3  -9  -6    7.15    1.79
  -3  -9  -6    6.67    1.41
  -3  -9  -6    3.42    2.50
  -3  -9  -5    7.20    1.22
  -3  -9  -5    1.23    1.81
  -3  -9  -5    1.67    1.43
  -3  -9  -5    6.29    1.51
  -3  -9  -5    3.07    1.12
  -3  -9  -4    9.89    2.08
  -3  -9  -4    9.08    1.66
  -3  -9  -4   14.65    1.65
  -3  -9  -3   28.58    3.28
  -3  -9  -3   23.77    2.64
  -3  -9  -3   29.55    2.50
  -3  -9  -2    2.33    1.21
  -3  -9  -2    6.05    1.06
  -3  -9  -1    3.48    1.29
  -3  -9  -1    6.98    1.08
  -3  -9   0    2.31    0.73
  -3  -9   1   67.90    4.31
  -3  -9   2   24.43    1.79
  -3  -9   2   26.41    1.77
  -3  -8 -12   15.82    1.25
  -3  -8 -11  112.66    6.98
  -3  -8 -11   95.72    6.90
  -3  -8 -10    4.51    0.70
  -3  -8 -10    3.55    1.11
  -3  -8 -10    2.47    1.94
  -3  -8 -10    6.30    2.63
  -3  -8  -9    2.85    1.09
  -3  -8  -9    5.59    2.81
  -3  -8  -9    3.02    2.35
  -3  -8  -9    1.25    0.95
  -3  -8  -9    2.69    0.65
  -3  -8  -9    3.31    1.30
  -3  -8  -8    1.54    1.17
  -3  -8  -8    2.30    1.14
  -3  -8  -8    6.31    1.67
  -3  -8  -8    4.33    1.19
  -3  -8  -8    7.21    2.91
  -3  -8  -8    4.68    0.83
  -3  -8  -8    2.89    0.90
  -3  -8  -7  136.62    7.56
  -3  -8  -7   92.38    6.87
  -3  -8  -7  118.00   10.50
  -3  -8  -7   85.20    6.87
  -3  -8  -7  114.04    7.64
  -3  -8  -7  124.14    8.13
  -3  -8  -7   97.56    7.19
  -3  -8  -7  121.39   12.00
  -3  -8  -7  129.03   10.81
  -3  -8  -7   77.00   10.13
  -3  -8  -7  117.21   12.56
  -3  -8  -7   91.12    7.54
  -3  -8  -7  130.87    6.77
  -3  -8  -6    3.06    1.01
  -3  -8  -6    2.00    0.89
  -3  -8  -6    1.57    1.34
  -3  -8  -6    2.84    1.18
  -3  -8  -6    3.48    1.38
  -3  -8  -6    6.35    1.51
  -3  -8  -6    2.99    2.20
  -3  -8  -6    1.06    1.46
  -3  -8  -6    3.13    2.06
  -3  -8  -6   -1.69    2.32
  -3  -8  -6    3.04    1.47
  -3  -8  -6    3.61    0.76
  -3  -8  -5   59.01    3.56
  -3  -8  -5   43.82    7.19
  -3  -8  -5   49.15    7.25
  -3  -8  -5   54.44    6.38
  -3  -8  -5   57.87    4.14
  -3  -8  -5   42.27    3.77
  -3  -8  -5   55.49    6.42
  -3  -8  -5   47.27    4.13
  -3  -8  -5   46.53    4.19
  -3  -8  -5   36.33    6.19
  -3  -8  -5   53.34    4.79
  -3  -8  -5   45.16    6.14
  -3  -8  -4    8.49    1.51
  -3  -8  -4    6.58    2.32
  -3  -8  -4   11.38    2.18
  -3  -8  -4    8.49    1.81
  -3  -8  -4    6.17    2.49
  -3  -8  -4    6.20    2.97
  -3  -8  -4    6.71    0.97
  -3  -8  -4    6.93    2.99
  -3  -8  -4    8.53    3.04
  -3  -8  -4    6.78    2.84
  -3  -8  -4    3.65    1.75
  -3  -8  -3  204.51   15.08
  -3  -8  -3  189.99   14.88
  -3  -8  -3  192.36   12.26
  -3  -8  -3  206.19   12.82
  -3  -8  -3  192.20   12.75
  -3  -8  -3  213.02   11.83
  -3  -8  -3  218.36   17.00
  -3  -8  -3  235.42   12.53
  -3  -8  -3  157.06   16.00
  -3  -8  -3  183.01   15.87
  -3  -8  -2   26.27    2.56
  -3  -8  -2   24.19    1.97
  -3  -8  -2   33.05    5.29
  -3  -8  -2   30.71    2.59
  -3  -8  -2   20.45    4.29
  -3  -8  -2   30.64    3.38
  -3  -8  -2   21.66    4.67
  -3  -8  -1    0.81    0.82
  -3  -8  -1    0.34    1.05
  -3  -8  -1    1.12    1.02
  -3  -8  -1    1.18    1.62
  -3  -8  -1    1.72    1.26
  -3  -8  -1    1.23    0.76
  -3  -8  -1    1.07    0.44
  -3  -8   0   34.01    3.45
  -3  -8   0   32.42    2.28
  -3  -8   0   30.51    2.93
  -3  -8   0   25.68    4.79
  -3  -8   0   36.21    2.81
  -3  -8   1    0.09    0.32
  -3  -8   1    0.09    0.61
  -3  -8   2   36.27    2.44
  -3  -8   2   34.60    2.69
  -3  -8   3   30.57    1.92
  -3  -8   3   19.48    1.84
  -3  -8   4    0.26    0.21
  -3  -8   4    0.19    0.30
  -3  -7 -12    2.69    0.47
  -3  -7 -11    3.76    1.03
  -3  -7 -11    3.83    1.16
  -3  -7 -11    4.75    2.15
  -3  -7 -11    3.28    1.22
  -3  -7 -10    0.73    2.00
  -3  -7 -10    1.11    1.00
  -3  -7 -10    0.63    0.86
  -3  -7 -10    1.66    1.29
  -3  -7  -9   -0.85    2.17
  -3  -7  -9   -1.68    2.14
  -3  -7  -9    0.40    1.01
  -3  -7  -9    1.05    0.96
  -3  -7  -8   10.94    1.91
  -3  -7  -8   12.91    2.38
  -3  -7  -8    9.28    2.83
  -3  -7  -8    8.56    3.39
  -3  -7  -8   10.49    3.03
  -3  -7  -8   17.05    4.79
  -3  -7  -8   10.94    1.93
  -3  -7  -8    9.29    3.67
  -3  -7  -8   14.09    1.68
  -3  -7  -7   28.98    2.55
  -3  -7  -7   21.64    4.25
  -3  -7  -7   23.04    2.44
  -3  -7  -7   31.40    3.07
  -3  -7  -7   29.28    3.39
  -3  -7  -7   27.41    2.91
  -3  -7  -7   24.63    4.74
  -3  -7  -7   28.97    5.86
  -3  -7  -7   21.55    2.83
  -3  -7  -7   22.22    5.14
  -3  -7  -6   79.43    5.36
  -3  -7  -6   75.81    8.13
  -3  -7  -6   70.74    5.44
  -3  -7  -6   80.69    5.94
  -3  -7  -6   83.55    6.29
  -3  -7  -6   74.04    5.59
  -3  -7  -6   81.77    8.48
  -3  -7  -6   86.73    9.83
  -3  -7  -6   70.68    9.80
  -3  -7  -6   73.77    9.01
  -3  -7  -6   51.39    7.59
  -3  -7  -6   74.32    6.01
  -3  -7  -6   78.37    5.05
  -3  -7  -5   40.27    6.00
  -3  -7  -5   57.72    4.33
  -3  -7  -5   73.42    7.45
  -3  -7  -5   59.15    4.62
  -3  -7  -5   61.75    4.90
  -3  -7  -5   63.35    5.03
  -3  -7  -5   54.59    4.34
  -3  -7  -5   70.79    7.36
  -3  -7  -5   60.23    8.01
  -3  -7  -5   53.06    7.25
  -3  -7  -5   63.56    8.80
  -3  -7  -5   59.72    5.13
  -3  -7  -5   41.76    6.63
  -3  -7  -5   61.96    4.05
  -3  -7  -4    6.40    2.39
  -3  -7  -4    7.26    1.27
  -3  -7  -4    8.67    1.40
  -3  -7  -4   12.82    3.03
  -3  -7  -4    7.47    1.57
  -3  -7  -4    9.73    1.88
  -3  -7  -4    9.98    1.73
  -3  -7  -4    7.38    3.19
  -3  -7  -4    8.97    1.13
  -3  -7  -4    4.79    2.10
  -3  -7  -4   10.08    3.52
  -3  -7  -4    8.32    1.88
  -3  -7  -4    6.44    2.79
  -3  -7  -3   55.69    4.68
  -3  -7  -3   73.25    7.28
  -3  -7  -3   68.44    5.31
  -3  -7  -3   67.59    5.23
  -3  -7  -3   68.67    4.85
  -3  -7  -3   80.43    8.69
  -3  -7  -3   72.65    7.32
  -3  -7  -3   76.73    4.55
  -3  -7  -3   61.74    8.05
  -3  -7  -3   65.93    7.68
  -3  -7  -3   71.91    4.93
  -3  -7  -2  142.62   11.90
  -3  -7  -2  145.22   12.01
  -3  -7  -2  158.32    9.74
  -3  -7  -2  143.63    9.99
  -3  -7  -2  161.05    9.18
  -3  -7  -2  153.90   13.53
  -3  -7  -2  162.98    9.69
  -3  -7  -2  130.04   12.83
  -3  -7  -2  119.83   12.95
  -3  -7  -2  178.66   10.91
  -3  -7  -1   28.83    3.08
  -3  -7  -1   32.34    2.90
  -3  -7  -1   31.44    2.31
  -3  -7  -1   26.17    4.88
  -3  -7  -1   30.19    2.68
  -3  -7  -1   26.48    4.87
  -3  -7  -1   22.79    4.91
  -3  -7  -1   28.67    3.45
  -3  -7   0   23.69    2.55
  -3  -7   0   20.10    2.56
  -3  -7   0   25.63    2.36
  -3  -7   0   28.25    3.15
  -3  -7   0   24.58    4.63
  -3  -7   0   23.48    1.91
  -3  -7   0   17.30    4.45
  -3  -7   1    5.89    1.17
  -3  -7   1    4.98    1.53
  -3  -7   1    3.68    2.23
  -3  -7   1    7.02    0.89
  -3  -7   1    6.39    1.40
  -3  -7   2   99.65    6.22
  -3  -7   2   90.94    5.68
  -3  -7   3    3.08    0.90
  -3  -7   3    4.68    0.77
  -3  -7   4   12.77    1.20
  -3  -7   4    9.44    1.20
  -3  -7   4   11.86    1.09
  -3  -7   5    4.84    0.56
  -3  -7   5    4.43    0.54
  -3  -6 -12    1.01    0.75
  -3  -6 -12    0.14    0.71
  -3  -6 -11   22.51    2.60
  -3  -6 -11   18.11    2.30
  -3  -6 -11   20.25    4.49
  -3  -6 -11   13.28    3.72
  -3  -6 -11   16.52    2.17
  -3  -6 -10    8.29    1.94
  -3  -6 -10    8.05    3.58
  -3  -6 -10    5.99    2.84
  -3  -6 -10    8.88    1.66
  -3  -6  -9    7.34    1.38
  -3  -6  -9    7.33    1.95
  -3  -6  -9   12.72    3.58
  -3  -6  -9    5.17    2.99
  -3  -6  -9    3.95    2.22
  -3  -6  -9    5.18    3.25
  -3  -6  -9    6.34    1.72
  -3  -6  -9    9.57    3.17
  -3  -6  -8   65.40    7.76
  -3  -6  -8   61.30    5.13
  -3  -6  -8   66.26    5.60
  -3  -6  -8   47.01    7.19
  -3  -6  -8   52.01    8.04
  -3  -6  -8   57.24    7.49
  -3  -6  -8   66.27    9.43
  -3  -6  -8   83.64   10.30
  -3  -6  -8   95.22    5.25
  -3  -6  -7    0.81    2.67
  -3  -6  -7    1.72    2.67
  -3  -6  -7    0.71    2.20
  -3  -6  -7   -1.08    1.78
  -3  -6  -7    0.48    0.64
  -3  -6  -7   -0.54    2.09
  -3  -6  -7    0.51    1.10
  -3  -6  -7   -0.24    1.29
  -3  -6  -7    4.73    2.75
  -3  -6  -7   -1.00    2.76
  -3  -6  -7    0.36    1.05
  -3  -6  -6    3.28    2.27
  -3  -6  -6    2.02    1.74
  -3  -6  -6    3.00    0.96
  -3  -6  -6    2.01    1.18
  -3  -6  -6    3.69    1.45
  -3  -6  -6    3.46    0.94
  -3  -6  -6    2.53    1.90
  -3  -6  -6    1.36    2.54
  -3  -6  -6    2.17    2.13
  -3  -6  -6    1.65    1.81
  -3  -6  -6    1.87    1.25
  -3  -6  -5    1.48    1.78
  -3  -6  -5    5.05    1.86
  -3  -6  -5    3.30    0.96
  -3  -6  -5    0.47    1.47
  -3  -6  -5    2.65    0.98
  -3  -6  -5    3.25    1.15
  -3  -6  -5    3.67    1.37
  -3  -6  -5    4.42    3.01
  -3  -6  -5    2.35    1.70
  -3  -6  -5    2.10    1.30
  -3  -6  -5    5.02    2.39
  -3  -6  -5    3.78    2.54
  -3  -6  -5    6.14    3.19
  -3  -6  -4   14.76    3.28
  -3  -6  -4   23.14    3.80
  -3  -6  -4   26.02    2.18
  -3  -6  -4   19.12    3.57
  -3  -6  -4   18.28    2.15
  -3  -6  -4   21.68    2.56
  -3  -6  -4   16.49    1.95
  -3  -6  -4   18.68    4.07
  -3  -6  -4   21.43    3.76
  -3  -6  -4   19.51    4.64
  -3  -6  -4   21.13    4.04
  -3  -6  -4   19.15    2.55
  -3  -6  -4   15.08    3.69
  -3  -6  -4   20.70    1.81
  -3  -6  -3   52.89    6.54
  -3  -6  -3   56.35    4.14
  -3  -6  -3   61.27    6.31
  -3  -6  -3   54.98    4.12
  -3  -6  -3   53.96    4.45
  -3  -6  -3   67.65    4.88
  -3  -6  -3   55.71    4.56
  -3  -6  -3   55.99    7.40
  -3  -6  -3   61.30    7.18
  -3  -6  -3   67.21    5.06
  -3  -6  -3   65.41    6.55
  -3  -6  -3   64.26    7.41
  -3  -6  -3   63.52    3.98
  -3  -6  -2   74.44    5.56
  -3  -6  -2   80.39    7.68
  -3  -6  -2   82.41    6.02
  -3  -6  -2   86.85    5.78
  -3  -6  -2   91.07    6.24
  -3  -6  -2  105.11    9.49
  -3  -6  -2   86.74    7.86
  -3  -6  -2   67.72    8.30
  -3  -6  -2  102.03    6.77
  -3  -6  -2   87.65    9.04
  -3  -6  -2   90.73    5.39
  -3  -6  -2   87.02    8.65
  -3  -6  -1   53.91    5.92
  -3  -6  -1   59.96    6.16
  -3  -6  -1   59.35    4.37
  -3  -6  -1   63.21    4.74
  -3  -6  -1   46.12    6.60
  -3  -6  -1   68.78    5.19
  -3  -6  -1   63.74    3.89
  -3  -6  -1   72.36    7.62
  -3  -6  -1   58.82    6.96
  -3  -6  -1   46.91    3.97
  -3  -6   0    0.14    0.39
  -3  -6   0   -0.56    1.43
  -3  -6   0    0.59    1.36
  -3  -6   0    0.20    1.23
  -3  -6   0    0.28    0.85
  -3  -6   0   -0.66    1.06
  -3  -6   0    0.33    0.63
  -3  -6   1   32.42    3.06
  -3  -6   1   37.97    3.36
  -3  -6   1   43.01    8.02
  -3  -6   1   39.84    3.86
  -3  -6   1   39.85    3.11
  -3  -6   1   39.25    2.73
  -3  -6   1   25.54    5.08
  -3  -6   2    7.50    1.00
  -3  -6   2    6.73    0.95
  -3  -6   3   17.51    1.62
  -3  -6   3   20.09    2.02
  -3  -6   3   22.03    1.88
  -3  -6   4   11.76    1.57
  -3  -6   4   14.93    1.47
  -3  -6   4   15.90    1.59
  -3  -6   5   66.04    4.05
  -3  -6   5   55.90    4.16
  -3  -6   5   66.28    4.10
  -3  -6   6   68.76    4.00
  -3  -6   6   63.97    3.94
  -3  -5 -12   13.40    1.72
  -3  -5 -12   13.91    1.88
  -3  -5 -12   16.72    2.07
  -3  -5 -11    0.17    0.91
  -3  -5 -11   -0.76    1.93
  -3  -5 -11    2.00    1.96
  -3  -5 -11    0.17    0.96
  -3  -5 -11    0.41    1.03
  -3  -5 -10   28.27    5.40
  -3  -5 -10   23.41    2.96
  -3  -5 -10   24.46    5.50
  -3  -5 -10   34.77    3.56
  -3  -5 -10   30.21    3.27
  -3  -5  -9   93.16   10.19
  -3  -5  -9   76.57   10.27
  -3  -5  -9   95.47   10.97
  -3  -5  -9   95.72    7.22
  -3  -5  -8   12.92    2.34
  -3  -5  -8    8.62    1.87
  -3  -5  -8    7.50    3.26
  -3  -5  -8    5.76    3.33
  -3  -5  -8    5.26    3.23
  -3  -5  -8    6.41    1.38
  -3  -5  -8    7.74    1.69
  -3  -5  -7   26.78    2.07
  -3  -5  -7   39.95    5.21
  -3  -5  -7   34.54    3.37
  -3  -5  -7   32.87    2.97
  -3  -5  -7   37.72    3.60
  -3  -5  -7   26.01    5.11
  -3  -5  -7   36.27    5.04
  -3  -5  -7   21.99    5.24
  -3  -5  -7   35.60    6.39
  -3  -5  -7   21.02    2.65
  -3  -5  -6   69.27    5.00
  -3  -5  -6   83.82    5.60
  -3  -5  -6   77.03    9.19
  -3  -5  -6   86.66    9.73
  -3  -5  -6   61.26    7.59
  -3  -5  -6   73.84    7.54
  -3  -5  -6   80.80    5.89
  -3  -5  -6   86.59    7.89
  -3  -5  -6   72.71    4.61
  -3  -5  -6   79.48    5.66
  -3  -5  -5  281.40   18.56
  -3  -5  -5  297.36   16.51
  -3  -5  -5  289.34   16.20
  -3  -5  -5  272.00   15.81
  -3  -5  -5  302.70   16.47
  -3  -5  -5  240.88   18.54
  -3  -5  -5  231.00   17.94
  -3  -5  -5  231.90   18.85
  -3  -5  -5  271.39   17.90
  -3  -5  -5  193.13   17.49
  -3  -5  -5  294.78   20.55
  -3  -5  -4   79.50    5.77
  -3  -5  -4   87.42    7.58
  -3  -5  -4   74.15    5.57
  -3  -5  -4   78.20    5.45
  -3  -5  -4   84.41    5.53
  -3  -5  -4   91.52    6.04
  -3  -5  -4   83.07    5.87
  -3  -5  -4   67.44    7.56
  -3  -5  -4   78.41    8.07
  -3  -5  -4   79.17    7.37
  -3  -5  -4   71.31    7.15
  -3  -5  -4   85.66    7.50
  -3  -5  -4   76.11    8.29
  -3  -5  -4   82.41    9.12
  -3  -5  -3    9.81    2.44
  -3  -5  -3    5.81    0.95
  -3  -5  -3    7.53    1.28
  -3  -5  -3    8.23    1.46
  -3  -5  -3    6.58    1.06
  -3  -5  -3    9.03    2.83
  -3  -5  -3    5.34    2.20
  -3  -5  -3    5.43    1.87
  -3  -5  -3    5.80    2.00
  -3  -5  -3    8.11    2.26
  -3  -5  -3    9.22    2.51
  -3  -5  -3    6.44    2.32
  -3  -5  -3   10.17    1.68
  -3  -5  -2    4.14    1.87
  -3  -5  -2    7.80    2.16
  -3  -5  -2    5.39    2.04
  -3  -5  -2    3.07    1.93
  -3  -5  -2    4.63    1.22
  -3  -5  -2    5.06    0.96
  -3  -5  -2    5.53    1.18
  -3  -5  -2    4.71    1.73
  -3  -5  -1    0.33    0.98
  -3  -5  -1    1.88    0.75
  -3  -5  -1    0.94    0.82
  -3  -5  -1    0.93    1.45
  -3  -5  -1    2.36    1.40
  -3  -5  -1    0.45    1.24
  -3  -5  -1    0.49    1.54
  -3  -5  -1    1.49    1.08
  -3  -5  -1    3.06    1.70
  -3  -5  -1    0.69    0.59
  -3  -5   0   36.95    3.40
  -3  -5   0   43.02    3.36
  -3  -5   0   33.14    4.32
  -3  -5   0   50.29    4.98
  -3  -5   0   37.85    5.44
  -3  -5   0   41.44    3.77
  -3  -5   0   44.82    5.72
  -3  -5   0   41.73    3.17
  -3  -5   1   50.24    3.24
  -3  -5   1   53.80    6.37
  -3  -5   1   48.13    3.80
  -3  -5   1   50.03    8.57
  -3  -5   1   46.37    3.13
  -3  -5   1   46.07    3.63
  -3  -5   1   32.85    5.44
  -3  -5   1   46.85    4.16
  -3  -5   2    0.28    0.43
  -3  -5   2   -0.92    2.51
  -3  -5   2    0.46    0.42
  -3  -5   2    0.17    0.94
  -3  -5   2    0.13    0.81
  -3  -5   3   32.70    2.46
  -3  -5   3   34.96    2.37
  -3  -5   3   29.83    2.99
  -3  -5   3   31.71    2.46
  -3  -5   4    1.68    0.66
  -3  -5   4    1.42    0.61
  -3  -5   5   27.37    2.35
  -3  -5   5   30.11    2.35
  -3  -5   6   14.72    1.38
  -3  -5   6   15.69    1.43
  -3  -5   7    0.69    0.31
  -3  -5   7    0.59    0.36
  -3  -4 -12    0.37    0.67
  -3  -4 -12   -0.15    0.79
  -3  -4 -12   -0.40    0.80
  -3  -4 -11   16.34    2.14
  -3  -4 -11   13.05    1.97
  -3  -4 -11   21.35    4.86
  -3  -4 -11   17.23    3.92
  -3  -4 -11   15.26    2.05
  -3  -4 -11   16.25    2.33
  -3  -4 -10  100.87    9.35
  -3  -4 -10  107.01   10.34
  -3  -4 -10   92.42    6.84
  -3  -4 -10   93.07    6.89
  -3  -4 -10   77.62    9.93
  -3  -4 -10   78.03    6.52
  -3  -4 -10   87.64   10.92
  -3  -4 -10  114.55    9.75
  -3  -4 -10   95.51    7.36
  -3  -4  -9  208.94   17.49
  -3  -4  -9  236.79   15.55
  -3  -4  -9  240.88   17.25
  -3  -4  -9  226.38   14.63
  -3  -4  -9  226.87   14.49
  -3  -4  -9  221.59   19.13
  -3  -4  -9  184.68   17.74
  -3  -4  -9  260.58   17.51
  -3  -4  -9  239.30   15.04
  -3  -4  -8   11.85    3.78
  -3  -4  -8   12.09    3.79
  -3  -4  -8    6.25    1.71
  -3  -4  -8    8.49    3.19
  -3  -4  -8    6.81    1.76
  -3  -4  -8    6.62    1.85
  -3  -4  -8    8.33    0.93
  -3  -4  -8    8.45    1.75
  -3  -4  -7   17.05    2.41
  -3  -4  -7   16.52    1.95
  -3  -4  -7   21.34    2.65
  -3  -4  -7   15.75    2.03
  -3  -4  -7   27.50    3.24
  -3  -4  -7   25.26    4.34
  -3  -4  -7   15.03    3.98
  -3  -4  -7   12.70    3.86
  -3  -4  -7   18.47    1.50
  -3  -4  -6   10.84    1.55
  -3  -4  -6   13.06    1.95
  -3  -4  -6   12.30    1.65
  -3  -4  -6   13.49    2.03
  -3  -4  -6   18.67    3.60
  -3  -4  -6   13.77    2.21
  -3  -4  -6    9.75    3.50
  -3  -4  -6    7.57    1.51
  -3  -4  -6   15.62    4.02
  -3  -4  -5   63.48    4.74
  -3  -4  -5   60.64    4.37
  -3  -4  -5   54.80    3.98
  -3  -4  -5   57.55    4.44
  -3  -4  -5   76.82    5.53
  -3  -4  -5   54.72    6.20
  -3  -4  -5   64.87    7.60
  -3  -4  -5   63.88    7.37
  -3  -4  -5   66.16    4.43
  -3  -4  -5   38.16    4.67
  -3  -4  -4  108.54    6.78
  -3  -4  -4   98.05    6.38
  -3  -4  -4   93.30    6.10
  -3  -4  -4  101.20    6.37
  -3  -4  -4  111.81    6.82
  -3  -4  -4  101.80    6.56
  -3  -4  -4   76.89    7.91
  -3  -4  -4   91.70    8.32
  -3  -4  -4  102.79    9.84
  -3  -4  -4  111.02    9.55
  -3  -4  -4   61.46    6.84
  -3  -4  -4   90.84    7.55
  -3  -4  -4   98.61    6.34
  -3  -4  -3    4.23    1.01
  -3  -4  -3    2.81    0.86
  -3  -4  -3    4.26    1.07
  -3  -4  -3    3.25    1.05
  -3  -4  -3    3.13    1.12
  -3  -4  -3    3.75    1.75
  -3  -4  -3    4.48    0.91
  -3  -4  -3    2.48    1.56
  -3  -4  -3    3.36    1.70
  -3  -4  -3    3.13    1.36
  -3  -4  -3    3.96    1.50
  -3  -4  -3    5.13    1.95
  -3  -4  -2  437.08   23.71
  -3  -4  -2  376.28   23.96
  -3  -4  -2  336.52   22.73
  -3  -4  -2  316.38   22.72
  -3  -4  -2  333.00   22.50
  -3  -4  -2  415.06   22.01
  -3  -4  -2  356.86   20.19
  -3  -4  -2  343.69   20.63
  -3  -4  -2  356.92   20.48
  -3  -4  -1    1.84    1.54
  -3  -4  -1    1.62    1.52
  -3  -4  -1    2.50    0.88
  -3  -4  -1    3.25    0.80
  -3  -4  -1    5.41    1.88
  -3  -4  -1    0.81    1.20
  -3  -4  -1    2.38    1.05
  -3  -4   0    7.59    1.25
  -3  -4   0    7.35    2.19
  -3  -4   0    6.75    1.40
  -3  -4   0    5.39    2.00
  -3  -4   0    5.94    1.20
  -3  -4   0    6.69    1.11
  -3  -4   0    5.36    0.93
  -3  -4   1    0.77    0.72
  -3  -4   1    1.21    0.64
  -3  -4   1    0.42    1.30
  -3  -4   1    0.67    0.54
  -3  -4   1   -1.68    2.31
  -3  -4   1   -0.46    1.52
  -3  -4   1   -0.30    0.91
  -3  -4   2    0.20    0.60
  -3  -4   2   -1.61    2.78
  -3  -4   2    0.41    0.53
  -3  -4   2    0.71    0.43
  -3  -4   2   -0.15    0.82
  -3  -4   2    0.47    0.69
  -3  -4   3   95.65    6.12
  -3  -4   3   99.92    6.75
  -3  -4   3  108.77    6.12
  -3  -4   3  107.60    6.61
  -3  -4   3   95.07    5.97
  -3  -4   3   98.94    6.10
  -3  -4   4   14.07    1.40
  -3  -4   4   13.89    1.27
  -3  -4   4   15.68    1.60
  -3  -4   4   12.84    1.38
  -3  -4   4   15.45    1.80
  -3  -4   5    3.96    0.94
  -3  -4   5    3.36    1.07
  -3  -4   5    4.09    0.86
  -3  -4   5    3.00    0.52
  -3  -4   5    2.39    0.69
  -3  -4   6   83.03    5.41
  -3  -4   6   85.71    5.42
  -3  -4   7   -0.06    0.43
  -3  -4   8    4.70    0.53
  -3  -3 -12    1.17    1.60
  -3  -3 -12    1.07    1.58
  -3  -3 -12    0.88    0.68
  -3  -3 -12    2.23    0.98
  -3  -3 -11   -0.74    2.04
  -3  -3 -11   -0.16    0.96
  -3  -3 -11    0.51    1.40
  -3  -3 -11   -0.36    1.08
  -3  -3 -10   87.89    9.18
  -3  -3 -10   78.70    9.53
  -3  -3 -10  103.96   11.34
  -3  -3 -10  103.13    7.58
  -3  -3 -10  100.69    9.63
  -3  -3 -10   92.71    8.10
  -3  -3 -10  115.89    8.04
  -3  -3 -10  132.48    8.03
  -3  -3 -10  126.25    7.94
  -3  -3  -9  217.01   12.50
  -3  -3  -9  201.58   12.27
  -3  -3  -9  190.76   12.07
  -3  -3  -9  190.78   17.18
  -3  -3  -9  187.00   17.61
  -3  -3  -9  178.05   14.88
  -3  -3  -9  172.91   14.04
  -3  -3  -9  184.42   13.15
  -3  -3  -9  176.02   10.59
  -3  -3  -9  208.56   14.65
  -3  -3  -9  193.47   12.79
  -3  -3  -8   29.96    2.07
  -3  -3  -8   23.80    2.95
  -3  -3  -8   31.51    3.25
  -3  -3  -8   27.99    4.37
  -3  -3  -8   30.39    4.32
  -3  -3  -8   21.91    4.22
  -3  -3  -8   24.00    3.36
  -3  -3  -8   26.53    4.22
  -3  -3  -8   21.63    3.02
  -3  -3  -8   19.34    4.56
  -3  -3  -8   26.21    5.69
  -3  -3  -7    0.75    1.15
  -3  -3  -7    0.82    1.59
  -3  -3  -7    2.57    1.62
  -3  -3  -7   -0.44    2.03
  -3  -3  -7   -0.27    0.75
  -3  -3  -7    1.46    1.42
  -3  -3  -7    0.88    0.76
  -3  -3  -7   -0.67    1.85
  -3  -3  -7   -0.65    1.77
  -3  -3  -7    0.67    0.97
  -3  -3  -6  197.56   12.91
  -3  -3  -6  255.53   13.85
  -3  -3  -6  234.06   15.49
  -3  -3  -6  172.05   15.98
  -3  -3  -6  227.92   15.50
  -3  -3  -6  223.05   14.28
  -3  -3  -6  239.33   15.18
  -3  -3  -6  242.87   17.65
  -3  -3  -6  199.56   16.74
  -3  -3  -6  228.85   13.86
  -3  -3  -6  231.35   15.07
  -3  -3  -5  154.25    9.19
  -3  -3  -5  148.09   10.29
  -3  -3  -5  128.13    8.44
  -3  -3  -5  163.84    9.20
  -3  -3  -5  135.84    8.76
  -3  -3  -5  142.24   12.54
  -3  -3  -5  145.84    9.51
  -3  -3  -5  154.50   10.41
  -3  -3  -5  143.83   10.47
  -3  -3  -5  123.29   11.63
  -3  -3  -5  118.36    8.49
  -3  -3  -4  116.74    7.46
  -3  -3  -4   96.57    7.97
  -3  -3  -4  125.60    8.85
  -3  -3  -4  128.92    7.81
  -3  -3  -4  108.14    7.21
  -3  -3  -4  139.14    7.88
  -3  -3  -4  115.59    7.38
  -3  -3  -4  144.32   12.14
  -3  -3  -4  125.88    8.89
  -3  -3  -4  110.49    8.78
  -3  -3  -4  130.87    8.24
  -3  -3  -4  104.30    7.36
  -3  -3  -4  110.10   10.05
  -3  -3  -4  122.67   10.53
  -3  -3  -3  356.76   19.01
  -3  -3  -3  339.08   20.19
  -3  -3  -3  344.93   18.62
  -3  -3  -3  345.54   18.59
  -3  -3  -3  357.62   21.81
  -3  -3  -3  376.40   22.41
  -3  -3  -3  331.14   18.69
  -3  -3  -3  225.74   18.69
  -3  -3  -3  293.51   19.75
  -3  -3  -3  279.73   19.93
  -3  -3  -3  303.65   19.95
  -3  -3  -3  386.71   19.59
  -3  -3  -3  336.16   18.78
  -3  -3  -2    2.75    1.34
  -3  -3  -2    2.45    1.30
  -3  -3  -2    1.83    1.25
  -3  -3  -2    1.21    0.73
  -3  -3  -2    2.81    1.72
  -3  -3  -2    2.41    1.47
  -3  -3  -2    1.66    0.73
  -3  -3  -2    2.43    1.05
  -3  -3  -2    3.11    1.55
  -3  -3  -2    2.06    0.82
  -3  -3  -1   10.25    1.30
  -3  -3  -1   16.71    2.59
  -3  -3  -1   16.29    2.43
  -3  -3  -1   14.38    2.48
  -3  -3  -1   11.19    1.68
  -3  -3  -1   15.93    2.39
  -3  -3  -1   11.47    2.21
  -3  -3   0    1.46    0.93
  -3  -3   0    2.69    3.34
  -3  -3   0    0.29    0.99
  -3  -3   0    0.74    1.03
  -3  -3   0    1.31    0.75
  -3  -3   0    0.64    1.36
  -3  -3   0   -0.24    0.95
  -3  -3   1    2.03    1.01
  -3  -3   1    4.23    0.97
  -3  -3   1    2.05    2.75
  -3  -3   1    3.49    1.55
  -3  -3   1    2.25    1.51
  -3  -3   1    1.67    0.67
  -3  -3   1    1.60    0.70
  -3  -3   2   25.07    2.25
  -3  -3   2   23.66    2.49
  -3  -3   2   28.50    2.61
  -3  -3   3   25.18    1.95
  -3  -3   3   26.89    2.66
  -3  -3   3   27.07    2.44
  -3  -3   4   29.48    2.91
  -3  -3   4   29.15    2.13
  -3  -3   4   24.60    2.13
  -3  -3   4   29.03    2.03
  -3  -3   4   28.01    2.52
  -3  -3   4   34.35    2.44
  -3  -3   4   29.71    2.21
  -3  -3   4   26.93    2.09
  -3  -3   5  580.94   28.99
  -3  -3   5  530.05   28.38
  -3  -3   5  504.12   29.00
  -3  -3   5  551.58   28.82
  -3  -3   6  191.96   10.13
  -3  -3   6  185.08    9.68
  -3  -3   6  194.15   10.12
  -3  -3   6  162.19   10.20
  -3  -3   7   27.05    2.12
  -3  -3   7   23.82    1.80
  -3  -3   8    1.10    0.43
  -3  -3   9   15.36    1.01
  -3  -3   9   11.11    0.85
  -3  -2 -12    8.75    1.40
  -3  -2 -12   10.70    1.67
  -3  -2 -11    0.76    1.76
  -3  -2 -11    0.29    0.74
  -3  -2 -11   -0.70    1.61
  -3  -2 -11    0.34    0.30
  -3  -2 -11    0.18    0.97
  -3  -2 -11   -0.15    0.84
  -3  -2 -10  143.23   11.90
  -3  -2 -10  133.20   12.34
  -3  -2 -10  149.19   12.05
  -3  -2 -10  162.72   10.98
  -3  -2 -10  122.13   12.81
  -3  -2 -10  137.80    9.93
  -3  -2 -10  157.23   15.39
  -3  -2 -10  168.09   10.25
  -3  -2  -9   46.28    5.75
  -3  -2  -9   47.42    5.16
  -3  -2  -9   49.30    5.09
  -3  -2  -9   36.48    5.34
  -3  -2  -9   40.95    6.52
  -3  -2  -9   53.09    4.37
  -3  -2  -9   46.34    4.27
  -3  -2  -9   46.01    4.08
  -3  -2  -9   42.66    4.33
  -3  -2  -8   76.60    5.69
  -3  -2  -8   69.44    5.57
  -3  -2  -8   70.49    7.00
  -3  -2  -8   73.14    6.13
  -3  -2  -8   77.08    6.66
  -3  -2  -8   73.43    7.13
  -3  -2  -8   65.81    7.43
  -3  -2  -8   70.56    5.53
  -3  -2  -8   78.94    9.16
  -3  -2  -7    5.99    1.48
  -3  -2  -7    3.82    1.30
  -3  -2  -7    4.28    1.72
  -3  -2  -7    4.28    1.00
  -3  -2  -7    4.07    1.31
  -3  -2  -7    3.30    1.73
  -3  -2  -7    6.22    2.10
  -3  -2  -7    3.27    1.08
  -3  -2  -7    4.82    1.34
  -3  -2  -7    0.65    1.66
  -3  -2  -6   12.24    1.87
  -3  -2  -6   12.93    2.30
  -3  -2  -6   12.95    1.53
  -3  -2  -6   11.16    1.80
  -3  -2  -6   11.03    2.16
  -3  -2  -6   12.00    2.00
  -3  -2  -6    9.50    2.44
  -3  -2  -6   11.46    2.32
  -3  -2  -6   10.97    1.75
  -3  -2  -6    8.07    2.75
  -3  -2  -6   15.85    3.77
  -3  -2  -5   18.82    2.15
  -3  -2  -5   21.14    2.71
  -3  -2  -5   15.29    2.03
  -3  -2  -5   16.73    1.75
  -3  -2  -5   17.59    2.27
  -3  -2  -5   17.51    2.54
  -3  -2  -5   20.61    2.80
  -3  -2  -5   18.18    3.74
  -3  -2  -5   19.05    2.66
  -3  -2  -5   20.86    3.89
  -3  -2  -5   14.08    3.25
  -3  -2  -4  130.33    7.93
  -3  -2  -4  133.13    8.06
  -3  -2  -4  137.38    8.88
  -3  -2  -4  133.77    8.23
  -3  -2  -4  119.77    7.77
  -3  -2  -4  129.17    8.79
  -3  -2  -4  119.97    8.73
  -3  -2  -4  142.77    8.63
  -3  -2  -4  112.48    7.67
  -3  -2  -4  121.04   10.50
  -3  -2  -4  112.16   10.60
  -3  -2  -3  364.38   22.72
  -3  -2  -3  305.70   18.20
  -3  -2  -3  327.80   18.42
  -3  -2  -3  323.30   18.80
  -3  -2  -3  318.02   19.20
  -3  -2  -3  334.80   19.41
  -3  -2  -3  292.10   18.02
  -3  -2  -3  316.61   21.04
  -3  -2  -3  349.58   18.66
  -3  -2  -3  342.84   19.43
  -3  -2  -2  145.77   10.18
  -3  -2  -2  151.52    9.51
  -3  -2  -2  161.39    9.40
  -3  -2  -2  138.55   11.19
  -3  -2  -2  158.45   11.75
  -3  -2  -2  171.23   10.45
  -3  -2  -2  142.06   10.15
  -3  -2  -2  181.59   13.46
  -3  -2  -1  168.27   10.09
  -3  -2  -1  125.68    8.99
  -3  -2  -1  131.92   10.25
  -3  -2  -1  163.95   10.04
  -3  -2  -1  176.74   10.19
  -3  -2   0  594.46   34.19
  -3  -2   0  602.68   34.18
  -3  -2   0  575.38   34.16
  -3  -2   0  615.52   37.86
  -3  -2   1  460.01   31.64
  -3  -2   1  495.66   27.97
  -3  -2   2   27.81    2.65
  -3  -2   2   23.96    4.48
  -3  -2   3    2.34    2.66
  -3  -2   3    2.44    0.95
  -3  -2   4    0.55    0.61
  -3  -2   4    0.80    0.45
  -3  -2   4    0.73    0.42
  -3  -2   4    0.37    0.49
  -3  -2   4    0.23    0.36
  -3  -2   4    0.70    0.53
  -3  -2   5  427.46   25.28
  -3  -2   5  476.91   24.20
  -3  -2   5  394.99   23.80
  -3  -2   5  413.31   24.29
  -3  -2   5  451.82   23.86
  -3  -2   5  389.31   23.79
  -3  -2   5  484.71   24.31
  -3  -2   6   27.89    2.20
  -3  -2   6   21.79    1.90
  -3  -2   6   21.62    2.23
  -3  -2   6   20.81    1.99
  -3  -2   6   27.01    1.95
  -3  -2   6   28.02    2.27
  -3  -2   7  183.56   10.73
  -3  -2   7  190.36   11.02
  -3  -2   8   13.80    1.38
  -3  -2   8   14.93    1.26
  -3  -2   8   14.11    1.40
  -3  -2   9    1.82    0.45
  -3  -2   9    2.27    0.41
  -3  -2   9    2.20    0.46
  -3  -2  10   44.43    2.59
  -3  -1 -12   44.23    3.33
  -3  -1 -12   45.31    3.61
  -3  -1 -12   45.80    2.78
  -3  -1 -11   16.36    2.32
  -3  -1 -11   15.49    4.03
  -3  -1 -11   10.94    3.27
  -3  -1 -11   16.98    2.08
  -3  -1 -10   28.78    4.11
  -3  -1 -10   27.16    3.40
  -3  -1 -10   20.81    3.54
  -3  -1 -10   21.90    2.50
  -3  -1 -10   26.42    5.77
  -3  -1 -10   19.90    4.97
  -3  -1 -10   18.78    2.67
  -3  -1 -10   22.75    2.60
  -3  -1  -9   11.92    2.40
  -3  -1  -9   13.63    2.77
  -3  -1  -9   13.49    2.42
  -3  -1  -9   11.53    2.63
  -3  -1  -9   10.46    3.99
  -3  -1  -9    5.71    2.52
  -3  -1  -9   11.25    1.88
  -3  -1  -9   10.98    2.19
  -3  -1  -9    9.56    1.93
  -3  -1  -8   48.57    5.28
  -3  -1  -8   45.31    4.84
  -3  -1  -8   45.13    3.99
  -3  -1  -8   43.13    4.46
  -3  -1  -8   44.31    5.07
  -3  -1  -8   51.00    7.82
  -3  -1  -8   41.24    6.26
  -3  -1  -8   43.18    3.85
  -3  -1  -8   37.02    3.76
  -3  -1  -8   42.02    4.08
  -3  -1  -8   40.73    3.66
  -3  -1  -7   29.33    3.22
  -3  -1  -7   33.45    3.50
  -3  -1  -7   38.81    3.45
  -3  -1  -7   36.52    3.36
  -3  -1  -7   42.63    4.06
  -3  -1  -7   39.87    4.36
  -3  -1  -7   38.67    4.07
  -3  -1  -7   36.57    4.23
  -3  -1  -7   34.17    4.33
  -3  -1  -7   36.42    3.38
  -3  -1  -7   36.24    5.82
  -3  -1  -6   75.74    5.36
  -3  -1  -6   80.82    5.50
  -3  -1  -6   76.50    5.76
  -3  -1  -6   71.29    5.24
  -3  -1  -6   69.97    6.05
  -3  -1  -6   86.04    6.20
  -3  -1  -6   68.44    6.01
  -3  -1  -6   65.00    5.94
  -3  -1  -6   72.18    8.45
  -3  -1  -6   63.58    7.61
  -3  -1  -6   65.55    5.15
  -3  -1  -5    0.13    0.86
  -3  -1  -5    0.96    0.64
  -3  -1  -5    0.61    0.85
  -3  -1  -5    1.13    0.57
  -3  -1  -5   -0.19    0.59
  -3  -1  -5    0.20    0.74
  -3  -1  -5    1.45    0.86
  -3  -1  -5    0.72    1.18
  -3  -1  -5   -0.52    1.43
  -3  -1  -5   -0.48    1.57
  -3  -1  -5    0.24    0.92
  -3  -1  -4  214.23   13.07
  -3  -1  -4  224.24   13.69
  -3  -1  -4  222.95   13.12
  -3  -1  -4  243.71   13.48
  -3  -1  -4  232.27   13.76
  -3  -1  -4  238.47   13.70
  -3  -1  -4  227.98   13.45
  -3  -1  -4  201.99   12.97
  -3  -1  -4  259.04   16.36
  -3  -1  -4  233.22   15.97
  -3  -1  -3   11.16    1.40
  -3  -1  -3   11.38    1.32
  -3  -1  -3   11.96    1.72
  -3  -1  -3   11.22    1.29
  -3  -1  -3    8.06    2.37
  -3  -1  -3   12.91    2.53
  -3  -1  -3    8.46    2.72
  -3  -1  -3   11.12    1.65
  -3  -1  -3    9.57    1.50
  -3  -1  -2  156.53   12.56
  -3  -1  -2  167.60    9.92
  -3  -1  -2  157.15    9.51
  -3  -1  -2  149.35    9.93
  -3  -1  -2  177.74    9.63
  -3  -1  -2  151.96   11.51
  -3  -1  -2  167.79    9.90
  -3  -1  -2  139.45    9.59
  -3  -1  -2  151.10    9.96
  -3  -1  -1   63.45    4.43
  -3  -1  -1   52.59    6.38
  -3  -1  -1   59.86    4.40
  -3  -1  -1   49.51    3.93
  -3  -1  -1   59.14    3.94
  -3  -1  -1   52.89    3.84
  -3  -1   0   78.55    5.48
  -3  -1   0   79.23    5.50
  -3  -1   0   65.51    7.64
  -3  -1   1  541.48   36.95
  -3  -1   1  623.67   34.20
  -3  -1   2  533.28   28.65
  -3  -1   2  415.37   30.78
  -3  -1   3  279.99   15.68
  -3  -1   3  213.92   17.03
  -3  -1   4   15.50    2.06
  -3  -1   5   -0.05    0.37
  -3  -1   5   -0.08    0.42
  -3  -1   5    0.07    0.45
  -3  -1   5    0.31    0.49
  -3  -1   5   -0.09    0.57
  -3  -1   5   -0.46    0.49
  -3  -1   5    0.17    0.34
  -3  -1   5    0.64    0.77
  -3  -1   6    3.08    0.80
  -3  -1   6    3.32    0.72
  -3  -1   6    3.57    0.66
  -3  -1   6    3.58    1.18
  -3  -1   7  108.25    6.29
  -3  -1   7  109.44    6.07
  -3  -1   8    2.45    0.74
  -3  -1   8    2.26    0.65
  -3  -1   8    2.77    0.57
  -3  -1   9    0.57    0.45
  -3  -1   9    0.47    0.38
  -3  -1   9    0.39    0.40
  -3  -1  10    7.34    0.71
  -3  -1  10    8.58    0.69
  -3  -1  10    6.74    0.65
  -3   0 -12    0.38    0.18
  -3   0 -11   22.51    2.20
  -3   0 -11   20.65    1.46
  -3   0 -11   27.28    3.10
  -3   0 -11   24.48    2.57
  -3   0 -10    8.18    1.63
  -3   0 -10    8.29    3.36
  -3   0 -10    2.81    2.46
  -3   0 -10    8.31    0.85
  -3   0 -10   11.79    2.18
  -3   0  -9    9.33    1.72
  -3   0  -9   16.63    2.40
  -3   0  -9   15.09    2.62
  -3   0  -9   10.15    2.52
  -3   0  -9   12.86    2.49
  -3   0  -9   14.25    4.31
  -3   0  -9   14.21    4.45
  -3   0  -9   11.44    1.94
  -3   0  -9   11.28    2.64
  -3   0  -8    6.06    1.73
  -3   0  -8    2.52    1.56
  -3   0  -8    5.38    1.84
  -3   0  -8    5.13    1.37
  -3   0  -8    8.42    3.77
  -3   0  -8    3.44    1.20
  -3   0  -8    4.28    2.82
  -3   0  -8    3.58    1.47
  -3   0  -8    5.40    1.47
  -3   0  -7   60.25    5.45
  -3   0  -7   49.89    5.23
  -3   0  -7   55.34    4.78
  -3   0  -7   50.02    5.19
  -3   0  -7   70.51    8.90
  -3   0  -7   52.49    4.45
  -3   0  -7   58.95    4.82
  -3   0  -7   60.79    4.95
  -3   0  -6    0.40    0.83
  -3   0  -6   -0.18    1.05
  -3   0  -6    1.61    0.83
  -3   0  -6    0.24    0.76
  -3   0  -6    1.46    1.01
  -3   0  -6    1.48    0.85
  -3   0  -6    1.70    0.59
  -3   0  -6   -2.67    2.50
  -3   0  -6    0.52    1.70
  -3   0  -6    1.34    0.85
  -3   0  -5   22.72    2.19
  -3   0  -5   18.96    2.24
  -3   0  -5   17.22    2.27
  -3   0  -5   19.88    2.15
  -3   0  -5   21.27    2.44
  -3   0  -5   18.91    2.40
  -3   0  -5   16.52    2.25
  -3   0  -5   18.25    1.86
  -3   0  -5   14.00    2.57
  -3   0  -5   16.51    3.48
  -3   0  -5   17.18    2.01
  -3   0  -4   11.24    1.53
  -3   0  -4    8.41    1.39
  -3   0  -4    5.13    1.97
  -3   0  -4    8.84    2.68
  -3   0  -4    9.00    1.29
  -3   0  -4    7.29    1.34
  -3   0  -4    7.08    1.18
  -3   0  -4    6.76    2.07
  -3   0  -4    9.37    1.21
  -3   0  -4    7.76    1.26
  -3   0  -4   11.01    1.56
  -3   0  -4    8.28    1.38
  -3   0  -3   17.23    2.82
  -3   0  -3   14.05    2.79
  -3   0  -3   15.48    3.05
  -3   0  -3   14.37    1.67
  -3   0  -3   13.76    1.76
  -3   0  -3   12.59    2.84
  -3   0  -3   16.90    1.78
  -3   0  -3   14.88    1.64
  -3   0  -3   15.73    1.77
  -3   0  -2  231.55   16.15
  -3   0  -2  233.78   17.24
  -3   0  -2  276.68   14.84
  -3   0  -2  267.44   14.71
  -3   0  -2  232.54   14.61
  -3   0  -2  240.72   14.64
  -3   0  -2  261.87   14.85
  -3   0  -1   19.95    3.71
  -3   0  -1   22.30    2.71
  -3   0  -1   27.65    2.31
  -3   0  -1   27.69    2.18
  -3   0  -1   26.77    2.25
  -3   0  -1   30.44    2.24
  -3   0  -1   26.11    2.26
  -3   0   0   83.62    5.36
  -3   0   0   80.51    5.23
  -3   0   0   80.94    5.34
  -3   0   1  148.43   11.63
  -3   0   2   48.00    5.86
  -3   0   2   68.01    4.74
  -3   0   3   29.37    2.77
  -3   0   3   20.73    3.39
  -3   0   4  331.66   22.56
  -3   0   4  405.10   22.16
  -3   0   5   24.07    1.77
  -3   0   5   24.01    1.91
  -3   0   5   26.15    1.84
  -3   0   5   25.84    1.91
  -3   0   5   22.52    1.77
  -3   0   5   21.50    1.75
  -3   0   5   20.95    1.88
  -3   0   5   18.25    2.55
  -3   0   6  136.96    7.95
  -3   0   6  152.07    8.00
  -3   0   6  121.77    9.41
  -3   0   6  116.30    7.94
  -3   0   6  131.24    7.96
  -3   0   6  138.68    7.99
  -3   0   6  147.92    8.10
  -3   0   6  128.17    8.14
  -3   0   7    2.36    0.66
  -3   0   7    2.00    0.58
  -3   0   7    1.94    0.55
  -3   0   7    1.47    0.58
  -3   0   7    2.47    0.72
  -3   0   8    4.57    0.84
  -3   0   8    3.36    0.72
  -3   0   8    3.40    0.79
  -3   0   9   83.07    5.29
  -3   0   9   90.77    5.26
  -3   0   9   83.81    5.32
  -3   0  10    4.51    0.60
  -3   0  10    4.73    0.63
  -3   0  10    4.52    0.58
  -3   1 -11    4.28    1.40
  -3   1 -11    8.24    1.60
  -3   1 -11    5.37    1.14
  -3   1 -11    7.42    0.64
  -3   1 -10    4.60    1.91
  -3   1 -10    5.91    1.56
  -3   1 -10    6.40    0.73
  -3   1 -10    5.97    1.29
  -3   1  -9    1.69    1.09
  -3   1  -9    1.20    1.41
  -3   1  -9    0.99    0.86
  -3   1  -9    0.61    0.96
  -3   1  -8    2.13    1.18
  -3   1  -8    1.36    1.06
  -3   1  -8    0.52    0.67
  -3   1  -8    0.36    0.90
  -3   1  -8    0.68    0.94
  -3   1  -8    2.97    1.38
  -3   1  -8    0.78    1.41
  -3   1  -8    0.96    2.24
  -3   1  -8    1.66    2.11
  -3   1  -7   21.54    2.75
  -3   1  -7   23.29    3.11
  -3   1  -7   15.76    2.26
  -3   1  -7   21.03    2.62
  -3   1  -7   11.94    2.44
  -3   1  -7   16.95    2.72
  -3   1  -7   13.68    4.20
  -3   1  -7   16.30    4.70
  -3   1  -7   18.28    2.77
  -3   1  -6  211.52   12.65
  -3   1  -6  187.29   12.36
  -3   1  -6  209.78   17.48
  -3   1  -6  190.07   16.44
  -3   1  -6  209.68   12.91
  -3   1  -6  212.10   13.15
  -3   1  -6  181.07   12.20
  -3   1  -5    5.65    1.34
  -3   1  -5    6.54    1.37
  -3   1  -5    6.46    1.12
  -3   1  -5    7.16    1.21
  -3   1  -5    2.54    2.21
  -3   1  -5    8.95    2.99
  -3   1  -5    3.52    1.32
  -3   1  -5    5.53    1.29
  -3   1  -4   61.23    4.48
  -3   1  -4   61.64    4.44
  -3   1  -4   52.79    3.86
  -3   1  -4   48.23    4.02
  -3   1  -4   53.39    4.12
  -3   1  -4   51.30    5.26
  -3   1  -4   50.38    4.02
  -3   1  -4   55.94    4.63
  -3   1  -4   53.63    6.47
  -3   1  -4   55.94    4.37
  -3   1  -3   80.34    5.42
  -3   1  -3   76.76    7.03
  -3   1  -3   72.60    5.24
  -3   1  -3   87.97    5.73
  -3   1  -3   84.66    5.69
  -3   1  -3   70.82    5.11
  -3   1  -3   85.06    5.59
  -3   1  -3   87.05    5.62
  -3   1  -3   92.41    7.78
  -3   1  -3   70.04    5.11
  -3   1  -3   81.55    5.73
  -3   1  -2  345.99   19.31
  -3   1  -2  314.56   18.57
  -3   1  -2  311.29   18.56
  -3   1  -2  347.18   19.21
  -3   1  -2  373.79   19.26
  -3   1  -2  366.10   19.49
  -3   1  -2  367.93   19.51
  -3   1  -2  321.85   19.16
  -3   1  -2  321.01   21.40
  -3   1  -2  297.19   20.58
  -3   1  -1  100.57    6.43
  -3   1  -1   86.52    8.39
  -3   1  -1  107.61    6.50
  -3   1  -1  105.29    6.82
  -3   1  -1   99.45    6.79
  -3   1   0  410.87   23.62
  -3   1   0  422.06   23.86
  -3   1   0  431.55   23.79
  -3   1   0  429.02   23.99
  -3   1   1   12.75    1.71
  -3   1   1   13.66    1.75
  -3   1   1   11.49    2.88
  -3   1   1   14.80    1.72
  -3   1   2    0.14    0.42
  -3   1   2    0.27    0.45
  -3   1   2    0.37    1.26
  -3   1   2    0.14    0.62
  -3   1   3  538.99   32.64
  -3   1   4    4.73    0.62
  -3   1   5  192.94   12.49
  -3   1   6   42.80    3.05
  -3   1   6   36.34    2.81
  -3   1   6   41.21    2.84
  -3   1   6   38.31    4.09
  -3   1   6   44.84    2.89
  -3   1   6   44.33    2.93
  -3   1   6   45.19    2.99
  -3   1   6   42.26    2.88
  -3   1   7    0.71    0.52
  -3   1   7    1.63    0.49
  -3   1   7    1.14    0.52
  -3   1   7    0.65    0.46
  -3   1   7    1.09    0.55
  -3   1   7    1.82    0.59
  -3   1   7    2.16    0.56
  -3   1   7    1.46    0.64
  -3   1   8    0.15    0.44
  -3   1   8   -0.27    0.43
  -3   1   8   -0.08    0.53
  -3   1   9    3.81    0.70
  -3   1   9    2.96    0.74
  -3   1  10    3.41    0.59
  -3   1  10    3.91    0.66
  -3   2 -11    1.34    0.25
  -3   2 -10   51.84    4.63
  -3   2 -10   41.34    4.07
  -3   2  -9    1.03    1.71
  -3   2  -9    3.99    1.46
  -3   2  -8    0.29    0.96
  -3   2  -8    0.27    0.70
  -3   2  -8    1.08    0.83
  -3   2  -8   -0.63    2.04
  -3   2  -8   -0.24    1.43
  -3   2  -8    1.28    1.08
  -3   2  -7   13.23    2.28
  -3   2  -7   11.66    2.26
  -3   2  -7   12.43    2.96
  -3   2  -7   13.17    2.42
  -3   2  -7   12.57    2.03
  -3   2  -6  440.01   22.95
  -3   2  -6  409.41   22.98
  -3   2  -6  400.26   22.90
  -3   2  -6  385.52   22.17
  -3   2  -6  372.94   27.77
  -3   2  -6  414.93   23.21
  -3   2  -6  345.47   20.72
  -3   2  -6  369.70   22.29
  -3   2  -5   78.42    6.18
  -3   2  -5   83.55    6.35
  -3   2  -5   72.84    5.80
  -3   2  -5   77.08    6.05
  -3   2  -5   77.46    6.68
  -3   2  -5   78.73    9.28
  -3   2  -5   95.22    6.73
  -3   2  -5   88.92    6.30
  -3   2  -4  141.73    9.42
  -3   2  -4  137.45    9.18
  -3   2  -4  127.33    8.83
  -3   2  -4  144.83    9.26
  -3   2  -4  137.18    9.67
  -3   2  -4  129.96   12.06
  -3   2  -4  136.10    9.18
  -3   2  -4  135.13    9.19
  -3   2  -3   46.81    3.95
  -3   2  -3   48.42    3.98
  -3   2  -3   52.39    4.15
  -3   2  -3   48.97    3.90
  -3   2  -3   47.66    3.98
  -3   2  -3   41.10    3.52
  -3   2  -3   49.33    4.14
  -3   2  -3   41.54    5.51
  -3   2  -3   51.75    3.89
  -3   2  -3   49.72    3.94
  -3   2  -2  163.11    9.76
  -3   2  -2  156.20    9.69
  -3   2  -2  155.14    9.55
  -3   2  -2  161.05   11.57
  -3   2  -2  153.77    9.54
  -3   2  -2  173.34    9.37
  -3   2  -2  161.77    9.62
  -3   2  -1  637.14   36.50
  -3   2  -1  626.37   36.79
  -3   2  -1  694.23   39.38
  -3   2  -1  645.98   36.74
  -3   2  -1  658.56   36.35
  -3   2  -1  688.56   37.06
  -3   2  -1  661.15   36.97
  -3   2   0    2.02    0.75
  -3   2   0    2.18    0.82
  -3   2   0    1.24    0.60
  -3   2   0    0.38    1.57
  -3   2   0    2.25    0.51
  -3   2   0    1.79    0.56
  -3   2   0    1.07    0.41
  -3   2   0    1.37    0.62
  -3   2   1  149.14    9.66
  -3   2   1  139.28    9.56
  -3   2   1  140.02   11.45
  -3   2   1  163.72    9.37
  -3   2   2   37.68    3.25
  -3   2   2   35.20    3.15
  -3   2   2   39.79    4.73
  -3   2   2   41.44    3.08
  -3   2   2   28.23    2.24
  -3   2   3  183.82   10.51
  -3   2   3  180.23   10.48
  -3   2   3  181.67   10.48
  -3   2   3  146.23    9.30
  -3   2   4   24.39    2.53
  -3   2   4   24.36    2.54
  -3   2   4   27.07    2.82
  -3   2   4   26.29    1.91
  -3   2   5   17.87    2.58
  -3   2   5   25.04    1.80
  -3   2   6   28.24    2.31
  -3   2   6   31.29    2.23
  -3   2   6   32.99    2.32
  -3   2   6   31.06    2.21
  -3   2   6   27.62    2.24
  -3   2   6   28.64    2.31
  -3   2   6   33.83    2.31
  -3   2   7    5.82    0.92
  -3   2   7    7.34    0.88
  -3   2   7    5.87    0.91
  -3   2   7    6.90    0.87
  -3   2   7    6.65    0.90
  -3   2   7    5.69    1.00
  -3   2   7    7.18    0.94
  -3   2   7    6.80    0.97
  -3   2   7    6.54    0.88
  -3   2   8   38.09    2.88
  -3   2   8   41.41    2.74
  -3   2   8   34.96    2.90
  -3   2   8   39.76    2.80
  -3   2   8   42.56    2.81
  -3   2   8   42.84    2.90
  -3   2   9   43.67    3.44
  -3   2   9   57.57    3.41
  -3   2   9   51.75    3.38
  -3   2   9   51.29    3.47
  -3   2  10    0.65    0.37
  -3   2  10    1.16    0.42
  -3   3 -10   28.44    2.51
  -3   3 -10   26.16    1.72
  -3   3  -9    4.59    1.69
  -3   3  -9    3.31    0.55
  -3   3  -8  112.45    6.21
  -3   3  -8   92.35    7.41
  -3   3  -8   91.87    9.51
  -3   3  -8   94.32    7.99
  -3   3  -7    0.46    1.24
  -3   3  -7    0.11    0.33
  -3   3  -7    0.37    0.77
  -3   3  -7    0.88    1.82
  -3   3  -7    0.24    0.55
  -3   3  -7    0.26    0.86
  -3   3  -7    0.57    0.72
  -3   3  -6   51.71    5.30
  -3   3  -6   42.33    4.44
  -3   3  -6   50.99    3.24
  -3   3  -6   47.51    5.23
  -3   3  -6   54.54    5.33
  -3   3  -6   38.76    3.80
  -3   3  -6   55.04    4.84
  -3   3  -6   57.33    5.11
  -3   3  -6   55.38    4.86
  -3   3  -5   86.66    6.93
  -3   3  -5   85.83    7.38
  -3   3  -5   92.84    7.47
  -3   3  -5   94.67    5.66
  -3   3  -5  100.00    7.87
  -3   3  -5   96.24    7.24
  -3   3  -5  103.33    7.19
  -3   3  -4   14.38    2.46
  -3   3  -4   10.55    1.72
  -3   3  -4   11.18    1.75
  -3   3  -4   12.65    2.44
  -3   3  -4   11.85    1.99
  -3   3  -4   17.45    2.48
  -3   3  -4    9.79    1.78
  -3   3  -4   14.72    1.97
  -3   3  -3   69.85    5.18
  -3   3  -3   57.17    4.92
  -3   3  -3   63.51    4.51
  -3   3  -3   70.73    5.16
  -3   3  -3   63.59    5.03
  -3   3  -3   60.87    5.02
  -3   3  -3   76.18    5.52
  -3   3  -3   60.79    5.51
  -3   3  -3   63.74    5.10
  -3   3  -3   65.73    4.70
  -3   3  -2   38.65    3.23
  -3   3  -2   28.79    2.71
  -3   3  -2   35.38    3.34
  -3   3  -2   36.37    3.33
  -3   3  -2   32.28    3.18
  -3   3  -2   32.91    3.14
  -3   3  -2   33.12    3.16
  -3   3  -2   33.54    2.72
  -3   3  -2   31.98    3.12
  -3   3  -1  200.33   13.57
  -3   3  -1  252.98   14.61
  -3   3  -1  262.98   14.65
  -3   3  -1  268.90   14.13
  -3   3  -1  228.81   13.92
  -3   3  -1  253.53   14.30
  -3   3  -1  234.03   13.41
  -3   3  -1  225.01   13.41
  -3   3  -1  230.48   14.34
  -3   3   0    8.10    1.26
  -3   3   0    9.86    1.60
  -3   3   0    9.94    1.58
  -3   3   0    7.42    0.99
  -3   3   0    8.90    1.10
  -3   3   0   10.80    1.23
  -3   3   0    8.51    1.35
  -3   3   1    0.22    0.38
  -3   3   1   -0.62    0.64
  -3   3   1   -0.10    0.36
  -3   3   1    0.15    0.52
  -3   3   2   87.37    6.09
  -3   3   2   78.38    5.95
  -3   3   2   82.03    5.44
  -3   3   2   74.68    5.02
  -3   3   3  195.06   12.33
  -3   3   3  187.15   11.53
  -3   3   3  208.00   12.85
  -3   3   3  207.96   12.81
  -3   3   3  223.68   11.89
  -3   3   4   22.41    2.64
  -3   3   4   21.47    2.58
  -3   3   4   20.44    2.50
  -3   3   4   26.39    1.94
  -3   3   5   19.31    1.54
  -3   3   5   17.73    1.45
  -3   3   5   15.98    1.42
  -3   3   5   17.06    1.38
  -3   3   5   15.29    1.43
  -3   3   5   15.18    1.51
  -3   3   5   16.83    2.32
  -3   3   5   12.12    1.89
  -3   3   5   13.75    1.95
  -3   3   6    2.47    0.61
  -3   3   6    2.74    0.67
  -3   3   6    1.56    0.53
  -3   3   6    2.49    0.56
  -3   3   6    2.27    0.60
  -3   3   6    2.85    0.53
  -3   3   7   -0.40    0.51
  -3   3   7    0.32    0.41
  -3   3   7    0.20    0.43
  -3   3   7    0.23    0.41
  -3   3   7    0.31    0.36
  -3   3   7   -0.07    0.57
  -3   3   7    0.20    0.44
  -3   3   7   -0.09    0.64
  -3   3   8  150.47    8.80
  -3   3   8  158.07    8.94
  -3   3   8  159.44    8.82
  -3   3   8  145.76    8.90
  -3   3   8  155.42    8.84
  -3   3   8  129.59    8.93
  -3   3   9    5.72    1.05
  -3   3   9    4.32    0.75
  -3   3   9    7.18    0.92
  -3   3   9    4.85    0.83
  -3   3  10    0.88    0.44
  -3   4 -10   -0.01    0.10
  -3   4 -10   -0.09    0.12
  -3   4  -9    0.83    0.95
  -3   4  -9   -0.48    0.94
  -3   4  -9    0.38    0.29
  -3   4  -8    2.10    1.36
  -3   4  -8    0.26    0.30
  -3   4  -7    5.44    0.73
  -3   4  -7    5.64    1.45
  -3   4  -7    8.58    2.23
  -3   4  -6    1.07    1.78
  -3   4  -6    1.08    0.91
  -3   4  -6    0.06    0.39
  -3   4  -6    0.53    0.78
  -3   4  -6    0.60    0.93
  -3   4  -5   10.80    1.70
  -3   4  -5   13.90    2.75
  -3   4  -5   14.17    1.27
  -3   4  -5   15.66    2.67
  -3   4  -5   10.77    2.04
  -3   4  -5   13.22    2.38
  -3   4  -4    0.24    1.57
  -3   4  -4    0.81    0.93
  -3   4  -4    2.29    1.92
  -3   4  -4    1.09    1.00
  -3   4  -4   -0.30    0.88
  -3   4  -4    0.77    0.80
  -3   4  -4    0.70    0.40
  -3   4  -4    0.78    0.81
  -3   4  -3   63.55    5.25
  -3   4  -3   54.93    4.33
  -3   4  -3   68.92    5.29
  -3   4  -3   56.48    3.66
  -3   4  -3   56.24    4.94
  -3   4  -3   49.13    4.77
  -3   4  -3   57.91    5.08
  -3   4  -3   67.84    5.30
  -3   4  -3   57.25    5.16
  -3   4  -2   23.23    2.71
  -3   4  -2   17.40    2.30
  -3   4  -2   18.69    1.53
  -3   4  -2   18.50    2.43
  -3   4  -2   19.89    2.07
  -3   4  -2   19.69    2.55
  -3   4  -2   18.64    2.50
  -3   4  -2   19.43    2.51
  -3   4  -2   18.97    2.44
  -3   4  -1  349.22   21.39
  -3   4  -1  421.97   21.70
  -3   4  -1  375.65   21.73
  -3   4  -1  361.85   22.12
  -3   4  -1  357.82   22.10
  -3   4  -1  415.92   21.18
  -3   4  -1  336.89   20.49
  -3   4   0    1.53    0.66
  -3   4   0    1.10    0.89
  -3   4   0    2.44    1.13
  -3   4   0    2.67    0.98
  -3   4   0    2.26    0.92
  -3   4   0    2.07    0.55
  -3   4   1    2.77    0.77
  -3   4   1    2.42    1.01
  -3   4   1    3.77    1.19
  -3   4   1    3.09    0.63
  -3   4   2   23.80    2.24
  -3   4   2   26.06    3.01
  -3   4   2   23.00    2.95
  -3   4   2   22.66    2.15
  -3   4   2   26.96    1.97
  -3   4   3    4.54    0.96
  -3   4   3    2.81    1.02
  -3   4   3    3.78    1.24
  -3   4   3    3.59    0.91
  -3   4   4   50.71    3.34
  -3   4   4   55.33    3.81
  -3   4   4   46.73    3.29
  -3   4   4   45.47    3.20
  -3   4   4   54.04    3.40
  -3   4   4   40.38    3.86
  -3   4   4   41.87    4.26
  -3   4   4   45.29    4.39
  -3   4   5    2.96    0.93
  -3   4   5    3.26    0.60
  -3   4   5    2.10    0.57
  -3   4   5    1.65    0.60
  -3   4   5    2.76    0.69
  -3   4   5    1.54    0.83
  -3   4   5    2.22    0.96
  -3   4   6    0.63    0.63
  -3   4   6    0.47    0.41
  -3   4   6    0.07    0.46
  -3   4   6    1.25    0.89
  -3   4   6    0.15    0.50
  -3   4   6    0.12    0.42
  -3   4   7   62.68    4.41
  -3   4   7   78.14    4.87
  -3   4   7   66.58    4.45
  -3   4   7   84.28    4.66
  -3   4   8   11.46    1.48
  -3   4   8   12.77    1.36
  -3   4   8   10.59    1.17
  -3   4   8   10.98    1.27
  -3   4   8   11.90    1.19
  -3   4   9   60.26    3.86
  -3   4   9   67.96    4.06
  -3   4   9   63.02    4.12
  -3   4   9   59.26    3.97
  -3   4   9   60.43    3.85
  -3   4  10    8.80    0.86
  -3   5  -8   49.99    2.91
  -3   5  -8   46.04    2.80
  -3   5  -8   43.18    3.61
  -3   5  -7  153.55    8.61
  -3   5  -7  143.43    8.54
  -3   5  -7  152.39    9.86
  -3   5  -7  157.40    9.94
  -3   5  -6  150.37    8.81
  -3   5  -6  161.29   10.52
  -3   5  -6  149.04   10.31
  -3   5  -5   33.01    3.70
  -3   5  -5   28.64    2.77
  -3   5  -5   28.41    2.16
  -3   5  -5   30.19    3.82
  -3   5  -5   28.86    3.53
  -3   5  -5   28.45    3.54
  -3   5  -4    3.27    1.73
  -3   5  -4    1.49    0.93
  -3   5  -4    2.51    1.07
  -3   5  -4    3.42    0.64
  -3   5  -4    0.63    0.81
  -3   5  -4    3.17    1.24
  -3   5  -4    2.19    1.03
  -3   5  -3   25.86    3.26
  -3   5  -3   25.41    3.11
  -3   5  -3   30.85    2.61
  -3   5  -3   21.93    2.29
  -3   5  -3   20.52    2.93
  -3   5  -3   22.79    1.84
  -3   5  -3   22.35    2.89
  -3   5  -3   16.08    2.59
  -3   5  -3   23.02    1.82
  -3   5  -2    1.60    1.33
  -3   5  -2    3.70    1.18
  -3   5  -2    2.89    0.52
  -3   5  -2    2.76    1.03
  -3   5  -2    3.54    0.66
  -3   5  -2    4.72    1.33
  -3   5  -2    2.09    1.10
  -3   5  -2    3.16    1.10
  -3   5  -2    2.47    0.65
  -3   5  -1    0.06    0.38
  -3   5  -1    0.07    0.37
  -3   5  -1    0.26    0.66
  -3   5  -1   -0.27    0.83
  -3   5  -1    0.08    0.43
  -3   5  -1   -0.27    0.56
  -3   5  -1    0.39    0.53
  -3   5  -1    0.36    0.38
  -3   5   0   52.23    3.29
  -3   5   0   47.11    3.22
  -3   5   0   51.85    4.81
  -3   5   0   50.35    4.80
  -3   5   0   43.91    3.11
  -3   5   0   49.99    4.09
  -3   5   0   56.22    4.85
  -3   5   0   44.22    3.30
  -3   5   1    0.99    0.52
  -3   5   1    1.03    0.49
  -3   5   1    1.08    0.84
  -3   5   1    0.54    0.47
  -3   5   1   -0.27    0.80
  -3   5   1    1.25    0.78
  -3   5   2  160.45   10.65
  -3   5   2  206.07   10.35
  -3   5   2  174.51   10.19
  -3   5   2  162.81   10.11
  -3   5   2  166.46   10.27
  -3   5   2  179.35   10.20
  -3   5   3   13.63    1.75
  -3   5   3   15.74    1.40
  -3   5   3    9.53    1.15
  -3   5   3   12.64    2.28
  -3   5   3   10.14    2.02
  -3   5   3   10.17    1.36
  -3   5   3   10.78    1.20
  -3   5   3   11.33    1.27
  -3   5   3   11.34    1.24
  -3   5   3   10.94    1.15
  -3   5   4   23.12    1.79
  -3   5   4   22.40    3.01
  -3   5   4   19.65    2.85
  -3   5   4   20.06    1.71
  -3   5   4   19.49    1.93
  -3   5   4   19.17    1.74
  -3   5   4   15.88    1.72
  -3   5   4   21.79    2.28
  -3   5   5  469.64   30.75
  -3   5   5  464.99   30.73
  -3   5   5  517.98   29.29
  -3   5   5  541.14   29.04
  -3   5   5  535.31   29.23
  -3   5   5  527.00   29.12
  -3   5   6  234.59   13.04
  -3   5   6  233.03   12.98
  -3   5   6  199.99   12.61
  -3   5   6  221.54   13.13
  -3   5   6  255.47   13.18
  -3   5   7  177.78   10.78
  -3   5   7  183.66   10.74
  -3   5   8  126.65    7.54
  -3   5   8  131.79    7.84
  -3   5   8  124.28    7.72
  -3   5   9    5.84    0.86
  -3   5   9    5.41    0.72
  -3   5   9    6.49    0.92
  -3   5   9    5.78    0.79
  -3   5   9    7.06    1.09
  -3   5  10   11.96    1.03
  -3   5  10   10.69    1.11
  -3   6  -7   55.81    3.29
  -3   6  -7   55.07    3.29
  -3   6  -6   25.97    2.92
  -3   6  -6   31.43    2.07
  -3   6  -6   30.79    2.11
  -3   6  -5   87.07    6.61
  -3   6  -5   83.71    5.32
  -3   6  -5   91.96    5.29
  -3   6  -4   43.57    2.96
  -3   6  -4   41.62    4.32
  -3   6  -4   41.21    4.24
  -3   6  -4   46.51    2.96
  -3   6  -4   45.85    3.06
  -3   6  -3   20.30    1.57
  -3   6  -3   19.25    1.68
  -3   6  -3   20.79    2.75
  -3   6  -2   10.69    1.14
  -3   6  -2    8.19    1.89
  -3   6  -2    7.68    1.81
  -3   6  -2    8.99    1.96
  -3   6  -2    8.78    1.13
  -3   6  -2    8.45    0.89
  -3   6  -2    8.53    1.05
  -3   6  -2   11.65    1.92
  -3   6  -1    7.63    0.98
  -3   6  -1    5.82    0.98
  -3   6  -1    7.29    1.79
  -3   6  -1    4.22    1.44
  -3   6  -1    3.89    1.39
  -3   6  -1    7.11    0.92
  -3   6  -1    4.52    1.20
  -3   6   0   -0.09    0.54
  -3   6   0    0.31    0.86
  -3   6   0   -0.07    0.43
  -3   6   0    0.19    0.40
  -3   6   0   -0.08    0.39
  -3   6   0    0.29    0.67
  -3   6   1   86.68    7.47
  -3   6   1   89.30    7.55
  -3   6   1   77.55    6.08
  -3   6   1   92.05    5.59
  -3   6   1   79.91    5.41
  -3   6   1   80.76    5.65
  -3   6   2   87.88    5.62
  -3   6   2   85.35    6.27
  -3   6   2   92.27    5.72
  -3   6   2   83.48    5.49
  -3   6   2   83.55    5.68
  -3   6   3    3.60    0.77
  -3   6   3    3.00    0.57
  -3   6   3    4.25    0.75
  -3   6   3    3.36    0.79
  -3   6   3    3.78    1.28
  -3   6   3    4.02    1.56
  -3   6   3    2.55    0.83
  -3   6   3    2.70    1.41
  -3   6   3    3.37    0.76
  -3   6   4   82.40    5.86
  -3   6   4   94.99    5.81
  -3   6   4   89.96    5.74
  -3   6   4   98.81    6.61
  -3   6   4  100.40    5.84
  -3   6   4   91.57    7.72
  -3   6   4   82.08    7.55
  -3   6   5    0.32    0.51
  -3   6   5    0.37    0.57
  -3   6   5    0.29    0.46
  -3   6   5   -0.31    0.73
  -3   6   5    0.31    0.72
  -3   6   5    0.20    0.91
  -3   6   5    0.08    0.75
  -3   6   6  117.02    7.36
  -3   6   6  122.01    7.31
  -3   6   6  112.24    7.42
  -3   6   6  122.94    7.33
  -3   6   7  189.05   10.79
  -3   6   7  176.94   10.89
  -3   6   8   14.10    1.35
  -3   6   8   17.08    1.70
  -3   6   8   16.70    1.58
  -3   6   9    1.50    0.54
  -3   6   9    1.34    0.38
  -3   6   9    1.67    0.60
  -3   6   9    2.20    0.55
  -3   6   9    1.03    0.69
  -3   6  10    9.04    0.85
  -3   6  10    9.87    0.89
  -3   7  -6    0.29    0.24
  -3   7  -5    1.11    0.40
  -3   7  -4   13.30    1.21
  -3   7  -3   39.79    2.73
  -3   7  -2   11.16    1.21
  -3   7  -2   12.66    1.26
  -3   7  -1    2.30    0.61
  -3   7  -1    1.85    0.60
  -3   7  -1    1.84    0.96
  -3   7  -1    0.91    1.09
  -3   7  -1    1.86    0.62
  -3   7  -1    0.92    0.96
  -3   7   0   12.63    1.23
  -3   7   0   12.78    1.24
  -3   7   0   11.48    1.31
  -3   7   0   10.84    1.36
  -3   7   0    9.23    2.09
  -3   7   0    9.49    2.21
  -3   7   1    9.63    1.12
  -3   7   1    8.37    0.97
  -3   7   1    7.90    1.19
  -3   7   1   10.31    2.27
  -3   7   1    8.99    1.15
  -3   7   2   -0.12    0.35
  -3   7   2    0.41    0.51
  -3   7   2   -0.16    1.06
  -3   7   2    0.35    0.88
  -3   7   2   -0.29    0.64
  -3   7   2    1.04    1.08
  -3   7   2    0.17    0.52
  -3   7   3  268.26   15.51
  -3   7   3  252.51   15.17
  -3   7   3  284.14   15.37
  -3   7   3  257.05   15.12
  -3   7   3  301.94   16.26
  -3   7   3  249.37   17.68
  -3   7   3  233.11   17.50
  -3   7   3  270.75   15.32
  -3   7   4    6.93    1.08
  -3   7   4    9.04    1.20
  -3   7   4    8.40    1.06
  -3   7   4    7.35    1.53
  -3   7   4    8.05    2.04
  -3   7   4    7.36    1.17
  -3   7   4    8.47    2.08
  -3   7   4    7.64    1.06
  -3   7   5    4.20    0.83
  -3   7   5    3.97    0.85
  -3   7   5    3.61    0.74
  -3   7   6   -0.26    0.59
  -3   7   6    0.15    0.52
  -3   7   6    0.63    0.58
  -3   7   7   66.09    4.40
  -3   7   7   70.68    4.46
  -3   7   8   24.39    1.94
  -3   7   8   24.60    1.79
  -3   7   9   10.07    0.96
  -3   7  10   16.28    1.15
  -3   7  10   16.84    1.17
  -3   8  -5    0.06    0.16
  -3   8  -4    1.80    0.61
  -3   8  -3    5.03    0.60
  -3   8  -3    5.78    0.70
  -3   8  -2    0.32    0.41
  -3   8  -2    1.62    0.80
  -3   8  -2    0.47    0.41
  -3   8  -1    0.07    0.43
  -3   8  -1   -0.06    0.36
  -3   8   0    2.80    0.57
  -3   8   0    2.45    0.52
  -3   8   0    1.68    0.61
  -3   8   1   28.24    2.32
  -3   8   1   35.25    2.31
  -3   8   1   29.77    2.53
  -3   8   1   35.18    2.51
  -3   8   2  100.61    5.98
  -3   8   2   93.00    5.74
  -3   8   2   94.62    5.66
  -3   8   2   99.23    6.14
  -3   8   2   92.97    5.98
  -3   8   3    1.04    0.59
  -3   8   3    0.94    0.55
  -3   8   3    0.93    0.50
  -3   8   4   51.16    3.43
  -3   8   4   47.09    3.25
  -3   8   4   48.01    3.34
  -3   8   4   41.65    3.40
  -3   8   5   33.59    2.44
  -3   8   5   32.68    2.55
  -3   8   5   33.08    2.44
  -3   8   5   33.22    2.46
  -3   8   6   11.08    1.27
  -3   8   6   10.29    1.14
  -3   8   6   11.54    1.23
  -3   8   7   10.65    1.14
  -3   8   8    1.09    0.42
  -3   8   8    1.13    0.44
  -3   8   9    0.35    0.26
  -3   9  -3   30.83    1.85
  -3   9  -2   10.32    0.87
  -3   9  -2   13.64    0.94
  -3   9  -2   10.95    1.20
  -3   9  -1   50.95    3.25
  -3   9  -1   53.26    3.16
  -3   9  -1   51.60    3.65
  -3   9   0   19.37    1.49
  -3   9   0   15.20    1.73
  -3   9   1   50.54    3.09
  -3   9   1   41.52    2.83
  -3   9   1   47.92    3.49
  -3   9   2    0.47    0.41
  -3   9   3   29.84    2.15
  -3   9   3   27.87    1.96
  -3   9   3   28.53    2.15
  -3   9   4   -0.05    0.36
  -3   9   4    0.12    0.44
  -3   9   4    0.06    0.37
  -3   9   5   32.94    2.38
  -3   9   5   33.44    2.26
  -3   9   6   78.38    4.69
  -3   9   7   23.24    1.62
  -3   9   8    9.63    0.76
  -3  10   0   11.31    0.83
  -3  10   1    2.72    0.41
  -3  10   3   25.41    1.72
  -3  10   5   32.65    1.69
  -3  10   5   22.26    1.54
  -2 -11  -7    7.15    1.10
  -2 -11  -6    2.90    0.90
  -2 -11  -6    2.15    0.36
  -2 -11  -5    0.08    0.68
  -2 -11  -5    0.21    0.27
  -2 -11  -4   68.42    3.99
  -2 -11  -3    0.09    1.28
  -2 -11  -2   35.18    2.81
  -2 -10  -9   43.04    2.86
  -2 -10  -8    0.90    0.57
  -2 -10  -8    0.82    0.73
  -2 -10  -7   61.57    4.01
  -2 -10  -7   53.46    4.41
  -2 -10  -6    9.86    1.22
  -2 -10  -6    6.84    1.42
  -2 -10  -6    6.51    1.23
  -2 -10  -6    7.12    1.51
  -2 -10  -5    3.56    0.85
  -2 -10  -5    4.41    1.16
  -2 -10  -5    2.89    1.02
  -2 -10  -5    3.84    1.22
  -2 -10  -4    6.80    1.63
  -2 -10  -4    8.17    1.12
  -2 -10  -4    7.88    1.34
  -2 -10  -3   12.18    1.98
  -2 -10  -3   16.25    1.56
  -2 -10  -3   17.83    2.17
  -2 -10  -2   25.52    2.72
  -2 -10  -2   29.06    2.21
  -2 -10  -2   31.14    2.77
  -2 -10  -1    2.08    0.57
  -2 -10   0    0.36    1.66
  -2 -10   0    0.86    0.38
  -2 -10   1   34.89    2.10
  -2  -9 -11    3.63    0.61
  -2  -9 -10    6.76    1.08
  -2  -9 -10    5.60    1.23
  -2  -9  -9    6.10    1.51
  -2  -9  -9    3.69    2.42
  -2  -9  -9    8.20    1.26
  -2  -9  -9    6.29    1.27
  -2  -9  -8    0.17    1.01
  -2  -9  -8   -0.30    0.88
  -2  -9  -8   -0.71    1.95
  -2  -9  -8   -1.68    1.65
  -2  -9  -8   -0.35    0.87
  -2  -9  -8    0.14    0.92
  -2  -9  -7   30.86    3.19
  -2  -9  -7   30.02    3.14
  -2  -9  -7   22.66    5.09
  -2  -9  -7   33.39    3.09
  -2  -9  -7   27.10    2.65
  -2  -9  -7   37.72    2.97
  -2  -9  -6   36.71    3.43
  -2  -9  -6   32.14    5.87
  -2  -9  -6   33.95    3.18
  -2  -9  -6   47.03    3.45
  -2  -9  -6   37.08    3.71
  -2  -9  -5    2.93    1.39
  -2  -9  -5    4.65    2.68
  -2  -9  -5    3.90    1.24
  -2  -9  -5    4.07    1.30
  -2  -9  -5    1.96    1.62
  -2  -9  -5    4.99    1.19
  -2  -9  -4   57.69    4.91
  -2  -9  -4   51.33    6.93
  -2  -9  -4   67.90    4.39
  -2  -9  -4   42.67    6.19
  -2  -9  -4   57.42    4.61
  -2  -9  -4   53.43    4.43
  -2  -9  -3    0.53    1.24
  -2  -9  -3    1.10    0.81
  -2  -9  -3   -0.15    0.95
  -2  -9  -3   -0.15    0.90
  -2  -9  -3   -0.22    0.70
  -2  -9  -2   60.56    4.80
  -2  -9  -2   56.33    4.71
  -2  -9  -2   56.28    3.92
  -2  -9  -2   40.04    5.98
  -2  -9  -2   50.83    3.97
  -2  -9  -2   51.85    4.28
  -2  -9  -1    2.10    1.26
  -2  -9  -1    1.05    0.82
  -2  -9  -1    2.41    1.06
  -2  -9  -1    1.95    0.74
  -2  -9  -1    2.00    1.23
  -2  -9   0    0.78    0.79
  -2  -9   0   -0.17    0.60
  -2  -9   1   29.55    3.61
  -2  -9   1   30.65    2.32
  -2  -9   2   71.55    4.21
  -2  -9   2   68.75    4.32
  -2  -8 -12   54.80    3.46
  -2  -8 -11  223.71   13.56
  -2  -8 -10  195.10   16.08
  -2  -8 -10  196.28   16.15
  -2  -8 -10  188.05   11.50
  -2  -8 -10  199.19   12.05
  -2  -8  -9  163.58   15.07
  -2  -8  -9  183.63   15.95
  -2  -8  -9  176.51   10.88
  -2  -8  -9  198.05   11.74
  -2  -8  -9  157.66   10.96
  -2  -8  -8   18.62    4.62
  -2  -8  -8   19.08    4.82
  -2  -8  -8   23.54    2.57
  -2  -8  -7   18.47    2.35
  -2  -8  -7   20.55    2.14
  -2  -8  -7   16.27    2.02
  -2  -8  -7   14.17    4.36
  -2  -8  -7   16.43    4.08
  -2  -8  -7   19.43    5.07
  -2  -8  -7   21.38    4.03
  -2  -8  -7   18.85    5.20
  -2  -8  -7   19.61    2.58
  -2  -8  -7   22.88    4.16
  -2  -8  -6    1.57    1.80
  -2  -8  -6    1.88    1.10
  -2  -8  -6    0.99    0.92
  -2  -8  -6    1.07    0.81
  -2  -8  -6   -0.80    2.74
  -2  -8  -6    1.25    1.84
  -2  -8  -6    1.57    2.00
  -2  -8  -6    2.11    1.90
  -2  -8  -6   -0.80    2.61
  -2  -8  -6    4.59    1.91
  -2  -8  -6    0.58    0.92
  -2  -8  -6    1.21    1.66
  -2  -8  -6    1.38    1.27
  -2  -8  -5   10.33    2.75
  -2  -8  -5    9.26    1.55
  -2  -8  -5    9.31    1.64
  -2  -8  -5    8.17    2.64
  -2  -8  -5    6.67    3.12
  -2  -8  -5   10.46    3.67
  -2  -8  -5   11.41    2.86
  -2  -8  -5    7.53    3.17
  -2  -8  -5    7.43    2.41
  -2  -8  -5    7.33    2.88
  -2  -8  -5    6.71    1.71
  -2  -8  -5   11.46    1.61
  -2  -8  -4   32.43    4.89
  -2  -8  -4   30.30    2.80
  -2  -8  -4   37.24    3.50
  -2  -8  -4   36.66    3.24
  -2  -8  -4   35.30    3.25
  -2  -8  -4   39.19    6.14
  -2  -8  -4   34.52    6.29
  -2  -8  -4   35.53    5.21
  -2  -8  -4   46.88    3.40
  -2  -8  -4   38.12    6.24
  -2  -8  -4   31.93    5.03
  -2  -8  -4   28.15    5.47
  -2  -8  -4   36.03    3.66
  -2  -8  -3  606.36   34.96
  -2  -8  -3  581.23   34.71
  -2  -8  -3  608.70   34.48
  -2  -8  -3  621.08   34.89
  -2  -8  -3  565.91   38.61
  -2  -8  -3  633.33   39.86
  -2  -8  -3  571.23   38.23
  -2  -8  -3  612.36   37.47
  -2  -8  -3  617.60   37.49
  -2  -8  -3  666.54   34.69
  -2  -8  -2   64.34    4.56
  -2  -8  -2   47.97    6.72
  -2  -8  -2   54.59    7.40
  -2  -8  -2   65.88    5.30
  -2  -8  -2   65.53    4.64
  -2  -8  -2   64.13    4.84
  -2  -8  -2   55.22    7.38
  -2  -8  -1  847.79   45.21
  -2  -8  -1  817.90   46.07
  -2  -8  -1  754.04   49.45
  -2  -8  -1  867.21   46.15
  -2  -8  -1  685.76   49.14
  -2  -8  -1  812.23   45.36
  -2  -8  -1  766.15   45.56
  -2  -8   0  104.69    6.64
  -2  -8   0  106.73    7.38
  -2  -8   0   93.34    9.87
  -2  -8   0   96.49    9.70
  -2  -8   0   99.48    6.86
  -2  -8   0   95.85    6.93
  -2  -8   0  110.07    7.40
  -2  -8   1   18.82    3.84
  -2  -8   1   20.35    2.03
  -2  -8   1   21.88    2.51
  -2  -8   1   23.55    2.35
  -2  -8   2    8.02    2.44
  -2  -8   2    6.37    1.06
  -2  -8   3    0.07    0.54
  -2  -8   3    0.11    0.42
  -2  -8   4    0.04    0.31
  -2  -8   4    0.05    0.37
  -2  -8   4    0.09    0.27
  -2  -8   5    1.62    0.24
  -2  -7 -11    1.88    0.95
  -2  -7 -11    2.48    2.04
  -2  -7 -11   -0.15    0.86
  -2  -7 -11    2.56    1.16
  -2  -7 -10    2.18    2.14
  -2  -7 -10    2.93    2.41
  -2  -7 -10    4.84    1.48
  -2  -7 -10    2.26    1.27
  -2  -7  -9   40.72    5.80
  -2  -7  -9   26.68    5.71
  -2  -7  -9   30.33    6.09
  -2  -7  -9   35.93    3.26
  -2  -7  -9   44.62    6.03
  -2  -7  -8    0.59    1.63
  -2  -7  -8    0.82    2.41
  -2  -7  -8    1.66    2.28
  -2  -7  -8   -0.78    1.98
  -2  -7  -8    0.49    0.89
  -2  -7  -8    0.59    1.62
  -2  -7  -7   52.00    6.55
  -2  -7  -7   40.26    3.41
  -2  -7  -7   58.64    4.19
  -2  -7  -7   42.03    3.47
  -2  -7  -7   48.18    6.38
  -2  -7  -7   33.26    6.59
  -2  -7  -7   58.24    7.67
  -2  -7  -7   43.93    3.46
  -2  -7  -7   46.37    4.06
  -2  -7  -7   35.32    5.50
  -2  -7  -6   46.50    6.04
  -2  -7  -6   46.90    3.72
  -2  -7  -6   39.94    3.21
  -2  -7  -6   38.89    3.24
  -2  -7  -6   37.52    5.58
  -2  -7  -6   32.84    4.61
  -2  -7  -6   36.04    6.41
  -2  -7  -6   41.91    6.82
  -2  -7  -6   39.78    6.13
  -2  -7  -6   37.44    3.10
  -2  -7  -6   30.92    5.13
  -2  -7  -6   32.63    3.45
  -2  -7  -5   39.25    5.31
  -2  -7  -5   37.23    3.25
  -2  -7  -5   31.23    2.90
  -2  -7  -5   36.26    3.05
  -2  -7  -5   47.01    5.71
  -2  -7  -5   29.59    4.49
  -2  -7  -5   36.93    5.90
  -2  -7  -5   34.53    5.87
  -2  -7  -5   39.66    6.41
  -2  -7  -5   35.35    5.35
  -2  -7  -5   36.35    3.44
  -2  -7  -5   24.86    4.58
  -2  -7  -5   26.42    2.65
  -2  -7  -4  132.84    9.35
  -2  -7  -4  197.87   13.23
  -2  -7  -4  170.97   10.09
  -2  -7  -4  161.03    9.69
  -2  -7  -4  159.31    9.74
  -2  -7  -4  144.42    9.25
  -2  -7  -4  185.08   12.98
  -2  -7  -4  168.33    9.78
  -2  -7  -4  118.22   11.79
  -2  -7  -4  135.04   13.10
  -2  -7  -4  138.24   12.42
  -2  -7  -4  167.29   10.17
  -2  -7  -4  159.91   12.47
  -2  -7  -4  156.07   13.94
  -2  -7  -4  158.39   13.44
  -2  -7  -3  284.15   20.59
  -2  -7  -3  386.83   23.95
  -2  -7  -3  353.66   20.98
  -2  -7  -3  354.69   21.05
  -2  -7  -3  398.79   20.84
  -2  -7  -3  388.07   21.33
  -2  -7  -3  401.07   24.13
  -2  -7  -3  358.98   25.10
  -2  -7  -3  401.98   21.07
  -2  -7  -3  325.45   24.23
  -2  -7  -3  409.22   21.62
  -2  -7  -3  383.14   25.74
  -2  -7  -3  334.35   23.82
  -2  -7  -2  375.32   20.33
  -2  -7  -2  382.47   23.96
  -2  -7  -2  352.02   23.46
  -2  -7  -2  404.34   20.08
  -2  -7  -2  359.70   22.67
  -2  -7  -2  360.28   22.73
  -2  -7  -2  344.22   23.89
  -2  -7  -2  438.53   21.03
  -2  -7  -1  153.25    9.59
  -2  -7  -1  140.58   12.92
  -2  -7  -1  168.45   10.41
  -2  -7  -1  138.78    9.76
  -2  -7  -1  166.89    9.80
  -2  -7  -1  164.13   10.05
  -2  -7   0   68.88    4.65
  -2  -7   0   57.85    4.65
  -2  -7   0   54.59    4.86
  -2  -7   0   62.53    4.37
  -2  -7   0   49.10    6.88
  -2  -7   0   64.10    5.04
  -2  -7   0   49.06    6.62
  -2  -7   0   58.39    4.26
  -2  -7   1    2.74    1.07
  -2  -7   1    2.28    0.99
  -2  -7   1    0.72    0.70
  -2  -7   1    2.04    1.21
  -2  -7   1    2.44    0.55
  -2  -7   1    2.22    0.83
  -2  -7   1    1.78    1.85
  -2  -7   1    3.20    1.26
  -2  -7   1    3.17    1.90
  -2  -7   2    0.55    1.52
  -2  -7   2    2.53    1.14
  -2  -7   2    2.49    0.53
  -2  -7   2    3.27    0.92
  -2  -7   2    1.75    0.88
  -2  -7   3   57.21    4.99
  -2  -7   3   52.43    4.03
  -2  -7   3   53.74    3.89
  -2  -7   4   41.80    3.26
  -2  -7   4   44.53    3.18
  -2  -7   5   11.55    0.97
  -2  -7   5   12.26    1.09
  -2  -7   6   55.14    3.27
  -2  -6 -12   73.50    5.27
  -2  -6 -12   83.18    5.71
  -2  -6 -11   -0.17    0.85
  -2  -6 -11    0.67    1.97
  -2  -6 -11   -0.18    1.08
  -2  -6 -10   28.57    5.66
  -2  -6 -10   21.27    4.83
  -2  -6 -10   25.43    3.08
  -2  -6 -10   25.31    2.95
  -2  -6  -9    2.28    2.06
  -2  -6  -9    0.80    2.51
  -2  -6  -9    2.85    2.29
  -2  -6  -9    3.23    2.37
  -2  -6  -9    2.37    2.17
  -2  -6  -9    2.34    1.00
  -2  -6  -8    5.05    2.48
  -2  -6  -8    3.35    2.40
  -2  -6  -8    2.39    2.49
  -2  -6  -8    3.88    1.13
  -2  -6  -7  163.58   14.58
  -2  -6  -7  134.15   14.13
  -2  -6  -7  171.81   10.82
  -2  -6  -7  208.19   10.62
  -2  -6  -7  163.90   13.85
  -2  -6  -7  157.58   13.71
  -2  -6  -7  155.36   14.91
  -2  -6  -7  191.64   15.96
  -2  -6  -7  162.40   10.84
  -2  -6  -7  140.52   12.82
  -2  -6  -6  102.64    8.94
  -2  -6  -6   92.23   10.57
  -2  -6  -6  124.51   11.33
  -2  -6  -6  116.01   10.38
  -2  -6  -6  119.25    7.69
  -2  -6  -6  104.30    7.23
  -2  -6  -6  112.31    7.31
  -2  -6  -6  139.33    7.46
  -2  -6  -6  101.78    9.97
  -2  -6  -6  122.57    7.81
  -2  -6  -6  108.01    9.86
  -2  -6  -5   91.62    8.02
  -2  -6  -5   73.55    8.90
  -2  -6  -5   79.85    8.27
  -2  -6  -5   93.87    6.37
  -2  -6  -5   89.25    6.08
  -2  -6  -5   93.89    6.18
  -2  -6  -5   88.72    6.05
  -2  -6  -5  108.90    6.16
  -2  -6  -5   73.06    8.07
  -2  -6  -5  110.63   10.45
  -2  -6  -5  110.39    6.74
  -2  -6  -5   80.39    8.33
  -2  -6  -4  573.45   34.06
  -2  -6  -4  551.89   30.94
  -2  -6  -4  534.35   30.96
  -2  -6  -4  527.13   30.89
  -2  -6  -4  606.87   35.86
  -2  -6  -4  582.08   34.14
  -2  -6  -4  564.69   35.26
  -2  -6  -4  562.22   35.03
  -2  -6  -4  541.99   33.47
  -2  -6  -4  505.99   33.85
  -2  -6  -4  583.81   31.41
  -2  -6  -3    2.24    1.69
  -2  -6  -3    1.36    0.72
  -2  -6  -3    2.06    1.35
  -2  -6  -3    1.28    0.98
  -2  -6  -3    3.59    1.06
  -2  -6  -3    1.79    0.96
  -2  -6  -3    0.75    1.46
  -2  -6  -3    0.51    1.67
  -2  -6  -3    2.27    1.52
  -2  -6  -3    1.16    1.39
  -2  -6  -3    1.07    1.75
  -2  -6  -3    0.48    1.72
  -2  -6  -3    1.57    1.19
  -2  -6  -3    1.32    1.83
  -2  -6  -2    8.94    2.26
  -2  -6  -2   10.64    2.30
  -2  -6  -2   11.99    2.88
  -2  -6  -2    8.95    2.64
  -2  -6  -2   10.59    2.72
  -2  -6  -2    8.83    2.75
  -2  -6  -2   10.62    1.45
  -2  -6  -2   10.42    1.56
  -2  -6  -2    7.86    1.29
  -2  -6  -2    9.38    1.27
  -2  -6  -1    2.07    1.08
  -2  -6  -1    3.59    0.95
  -2  -6  -1    3.49    1.04
  -2  -6  -1    1.60    0.84
  -2  -6  -1    2.55    0.70
  -2  -6  -1    2.70    1.01
  -2  -6  -1    1.33    1.31
  -2  -6  -1    2.48    0.74
  -2  -6  -1    3.49    1.54
  -2  -6  -1    5.16    1.95
  -2  -6  -1    3.05    1.17
  -2  -6   0   35.29    3.12
  -2  -6   0   39.05    3.34
  -2  -6   0   39.27    3.16
  -2  -6   0   37.81    5.41
  -2  -6   0   37.58    3.00
  -2  -6   0   39.13    3.00
  -2  -6   0   35.91    2.61
  -2  -6   0   45.56    3.64
  -2  -6   0   40.43    5.44
  -2  -6   1  102.90    7.03
  -2  -6   1  107.17    6.94
  -2  -6   1   99.07    9.78
  -2  -6   1  103.17    6.67
  -2  -6   1  108.26    7.37
  -2  -6   1  115.38    6.86
  -2  -6   1   96.61    6.22
  -2  -6   1  109.40    7.29
  -2  -6   1   88.91    9.19
  -2  -6   2   31.42    3.05
  -2  -6   2   37.98    5.63
  -2  -6   2   34.11    3.30
  -2  -6   2   38.54    3.12
  -2  -6   2   35.83    2.94
  -2  -6   2   43.51    3.68
  -2  -6   2   33.09    2.50
  -2  -6   3    1.46    0.55
  -2  -6   3    3.54    0.93
  -2  -6   3    3.07    1.10
  -2  -6   3    3.98    1.12
  -2  -6   4    3.13    0.93
  -2  -6   4    1.77    0.87
  -2  -6   5   84.30    4.96
  -2  -6   5   79.05    4.85
  -2  -6   6   14.44    1.19
  -2  -5 -12   13.68    1.77
  -2  -5 -12   17.89    2.05
  -2  -5 -12   14.46    1.84
  -2  -5 -11   10.59    3.36
  -2  -5 -11   10.06    1.78
  -2  -5 -11   11.28    1.81
  -2  -5 -11   14.23    2.02
  -2  -5 -10  132.54   12.81
  -2  -5 -10  131.72   11.44
  -2  -5 -10  118.68   11.94
  -2  -5 -10  119.93   12.44
  -2  -5 -10  129.88   11.36
  -2  -5 -10  117.92    8.64
  -2  -5 -10  135.72    8.98
  -2  -5  -9  103.29   11.28
  -2  -5  -9   95.17   11.04
  -2  -5  -9  103.33    9.91
  -2  -5  -9  106.25   11.23
  -2  -5  -9  109.92   10.02
  -2  -5  -8   34.38    5.09
  -2  -5  -8   32.24    5.85
  -2  -5  -8   30.88    4.93
  -2  -5  -8   24.81    5.45
  -2  -5  -8   34.60    5.96
  -2  -5  -8   30.11    2.80
  -2  -5  -7    0.75    0.80
  -2  -5  -7    1.78    1.91
  -2  -5  -7    3.69    3.13
  -2  -5  -7    1.34    1.86
  -2  -5  -7   -0.57    2.05
  -2  -5  -7   -0.66    1.95
  -2  -5  -6    0.51    1.59
  -2  -5  -6    2.01    2.04
  -2  -5  -6    1.26    0.75
  -2  -5  -6    0.70    0.85
  -2  -5  -6    0.41    0.61
  -2  -5  -6    1.87    1.94
  -2  -5  -6    1.21    2.05
  -2  -5  -6    1.12    2.17
  -2  -5  -6    0.58    1.71
  -2  -5  -6    0.38    1.04
  -2  -5  -6    0.13    0.80
  -2  -5  -5   11.58    3.12
  -2  -5  -5   20.27    2.84
  -2  -5  -5   25.01    3.99
  -2  -5  -5   19.90    2.05
  -2  -5  -5   16.10    3.15
  -2  -5  -5   19.51    1.95
  -2  -5  -5   20.36    1.83
  -2  -5  -5   19.02    1.77
  -2  -5  -5   16.81    1.69
  -2  -5  -5   19.63    3.55
  -2  -5  -5   14.68    3.18
  -2  -5  -5   11.20    3.40
  -2  -5  -5   16.63    3.29
  -2  -5  -5   14.77    2.91
  -2  -5  -5   17.92    2.02
  -2  -5  -4  355.97   23.87
  -2  -5  -4  373.52   21.90
  -2  -5  -4  403.45   21.71
  -2  -5  -4  384.59   21.64
  -2  -5  -4  411.04   21.91
  -2  -5  -4  367.56   21.58
  -2  -5  -4  279.47   23.81
  -2  -5  -4  380.97   23.54
  -2  -5  -4  354.62   23.86
  -2  -5  -4  286.99   24.19
  -2  -5  -4  422.29   25.76
  -2  -5  -4  386.87   24.60
  -2  -5  -4  361.91   24.14
  -2  -5  -4  452.33   22.16
  -2  -5  -3  170.16   12.46
  -2  -5  -3  171.99   10.42
  -2  -5  -3  167.63   10.37
  -2  -5  -3  183.52   10.23
  -2  -5  -3  168.46   10.36
  -2  -5  -3  189.04   13.37
  -2  -5  -3  184.26   13.34
  -2  -5  -3  161.61   12.11
  -2  -5  -3  181.87   12.59
  -2  -5  -3  175.61   13.36
  -2  -5  -3  172.15   12.64
  -2  -5  -3  191.83   10.80
  -2  -5  -2    4.09    1.13
  -2  -5  -2    4.13    1.10
  -2  -5  -2    8.02    1.44
  -2  -5  -2    2.72    2.03
  -2  -5  -2    5.45    2.14
  -2  -5  -2    1.59    1.30
  -2  -5  -2    4.46    2.27
  -2  -5  -2    0.40    1.59
  -2  -5  -2    2.09    1.95
  -2  -5  -2    4.45    2.11
  -2  -5  -1   36.72    4.75
  -2  -5  -1   56.79    5.91
  -2  -5  -1   45.72    3.53
  -2  -5  -1   48.71    3.37
  -2  -5  -1   45.66    4.81
  -2  -5  -1   44.33    5.14
  -2  -5  -1   55.45    3.83
  -2  -5  -1   44.32    4.67
  -2  -5  -1   44.02    3.16
  -2  -5  -1   46.30    5.23
  -2  -5   0  297.78   18.31
  -2  -5   0  331.75   18.31
  -2  -5   0  320.47   18.44
  -2  -5   0  284.59   20.58
  -2  -5   0  343.61   18.70
  -2  -5   0  317.07   18.12
  -2  -5   0  313.46   20.09
  -2  -5   0  318.03   20.16
  -2  -5   1    8.66    1.34
  -2  -5   1    8.86    1.41
  -2  -5   1    7.36    2.39
  -2  -5   1    9.62    1.59
  -2  -5   1    7.80    2.31
  -2  -5   1   11.63    1.39
  -2  -5   2    2.43    0.87
  -2  -5   2    0.77    0.81
  -2  -5   2    1.01    0.48
  -2  -5   2    1.47    0.50
  -2  -5   2    1.21    0.68
  -2  -5   2    0.86    0.93
  -2  -5   2   -0.83    1.22
  -2  -5   2    1.02    1.40
  -2  -5   3   29.00    2.25
  -2  -5   3   35.88    2.91
  -2  -5   3   32.52    2.68
  -2  -5   3   24.56    2.19
  -2  -5   3   33.24    5.01
  -2  -5   3   40.89    3.18
  -2  -5   4  283.64   16.00
  -2  -5   4  254.11   15.60
  -2  -5   5   48.61    3.77
  -2  -5   5   56.88    3.79
  -2  -5   5   58.97    3.77
  -2  -5   5   45.90    3.99
  -2  -5   5   48.16    3.20
  -2  -5   6   79.09    4.66
  -2  -5   6   63.07    4.75
  -2  -5   7    8.48    0.86
  -2  -5   7   10.18    1.03
  -2  -5   8   11.47    0.92
  -2  -4 -12   31.17    2.82
  -2  -4 -12   26.79    4.86
  -2  -4 -12   29.05    2.69
  -2  -4 -11    7.62    1.50
  -2  -4 -11    9.21    1.81
  -2  -4 -11    7.73    1.52
  -2  -4 -11    9.02    2.90
  -2  -4 -11    8.58    1.61
  -2  -4 -11    9.06    3.45
  -2  -4 -10   52.84    4.46
  -2  -4 -10   48.53    4.41
  -2  -4 -10   42.06    6.74
  -2  -4 -10   60.90    6.67
  -2  -4 -10   52.39    6.32
  -2  -4 -10   45.79    7.13
  -2  -4  -9   18.08    2.39
  -2  -4  -9   18.13    2.55
  -2  -4  -9   25.90    4.29
  -2  -4  -9   15.82    4.00
  -2  -4  -9   19.62    3.82
  -2  -4  -9   21.05    2.83
  -2  -4  -9   18.35    4.75
  -2  -4  -9   15.96    4.15
  -2  -4  -9   16.30    4.29
  -2  -4  -8   71.61    6.12
  -2  -4  -8   73.66    7.34
  -2  -4  -8   73.32    8.20
  -2  -4  -8   65.26    5.64
  -2  -4  -8   68.32    7.11
  -2  -4  -8   66.79    8.28
  -2  -4  -8   79.31    8.98
  -2  -4  -8   72.66    8.16
  -2  -4  -7   18.47    4.16
  -2  -4  -7   13.58    2.00
  -2  -4  -7   14.44    2.90
  -2  -4  -7   14.10    3.01
  -2  -4  -7   11.82    3.20
  -2  -4  -7   20.22    2.61
  -2  -4  -7   12.54    3.48
  -2  -4  -7   14.16    3.65
  -2  -4  -7   12.56    1.59
  -2  -4  -6   17.17    3.48
  -2  -4  -6   17.07    1.86
  -2  -4  -6   22.51    3.96
  -2  -4  -6   21.64    3.31
  -2  -4  -6   18.17    2.17
  -2  -4  -6   22.09    2.64
  -2  -4  -6   22.24    3.89
  -2  -4  -6   24.27    3.45
  -2  -4  -6   13.53    2.56
  -2  -4  -6   21.04    3.94
  -2  -4  -5  133.81   10.37
  -2  -4  -5  124.50    8.65
  -2  -4  -5  153.80    9.94
  -2  -4  -5  132.34    8.22
  -2  -4  -5  117.02    7.45
  -2  -4  -5  122.99    7.73
  -2  -4  -5  145.71   10.09
  -2  -4  -5  148.57    8.90
  -2  -4  -5  129.39   10.34
  -2  -4  -5  148.67    9.82
  -2  -4  -5  139.00   10.90
  -2  -4  -5  119.26    7.77
  -2  -4  -5  100.44    9.05
  -2  -4  -4   27.94    3.86
  -2  -4  -4   36.11    3.48
  -2  -4  -4   31.52    3.73
  -2  -4  -4   31.51    2.69
  -2  -4  -4   29.68    2.29
  -2  -4  -4   30.72    2.34
  -2  -4  -4   32.16    2.50
  -2  -4  -4   28.47    2.26
  -2  -4  -4   31.29    3.61
  -2  -4  -4   34.92    4.44
  -2  -4  -4   36.85    3.99
  -2  -4  -4   30.90    3.71
  -2  -4  -4   34.46    2.62
  -2  -4  -4   31.71    3.92
  -2  -4  -3  294.32   16.54
  -2  -4  -3  244.10   17.69
  -2  -4  -3  289.63   16.17
  -2  -4  -3  295.86   16.33
  -2  -4  -3  290.29   16.21
  -2  -4  -3  265.14   16.11
  -2  -4  -3  300.12   18.29
  -2  -4  -3  337.38   16.58
  -2  -4  -3  251.02   18.36
  -2  -4  -3  242.03   17.69
  -2  -4  -3  196.01   17.43
  -2  -4  -3  375.15   18.36
  -2  -4  -3  293.83   18.88
  -2  -4  -3  309.19   19.15
  -2  -4  -3  287.73   18.41
  -2  -4  -2  271.54   17.76
  -2  -4  -2  272.64   16.08
  -2  -4  -2  287.71   16.14
  -2  -4  -2  277.78   16.24
  -2  -4  -2  263.10   16.05
  -2  -4  -2  327.11   16.45
  -2  -4  -2  292.85   18.11
  -2  -4  -2  282.15   17.76
  -2  -4  -2  271.56   18.35
  -2  -4  -2  308.20   18.42
  -2  -4  -2  297.37   18.69
  -2  -4  -2  266.43   17.78
  -2  -4  -2  334.58   19.07
  -2  -4  -2  281.15   17.81
  -2  -4  -1    0.24    0.93
  -2  -4  -1    1.33    0.54
  -2  -4  -1   -0.24    1.00
  -2  -4  -1    1.71    1.47
  -2  -4  -1    1.06    1.10
  -2  -4  -1    1.85    1.32
  -2  -4  -1    1.73    1.08
  -2  -4  -1    1.43    0.69
  -2  -4  -1    0.89    0.76
  -2  -4  -1    0.59    1.02
  -2  -4   0  137.93    9.10
  -2  -4   0  160.96    9.05
  -2  -4   0  135.80   10.76
  -2  -4   0  165.73    9.38
  -2  -4   0  148.32    8.90
  -2  -4   0  170.43   11.75
  -2  -4   0  153.90   10.62
  -2  -4   0  151.68    9.14
  -2  -4   0  150.65   10.52
  -2  -4   1  905.95   47.69
  -2  -4   1  734.31   49.65
  -2  -4   1  949.04   48.04
  -2  -4   1  777.82   47.46
  -2  -4   1  822.83   47.75
  -2  -4   1  912.07   47.73
  -2  -4   1  949.95   51.12
  -2  -4   1  789.81   50.20
  -2  -4   1  895.51   47.69
  -2  -4   2   13.26    1.59
  -2  -4   2   10.15    1.46
  -2  -4   2    9.90    1.30
  -2  -4   2   11.27    2.74
  -2  -4   2   13.11    1.45
  -2  -4   2   11.23    2.57
  -2  -4   2   11.04    1.54
  -2  -4   3    0.90    1.32
  -2  -4   3    1.26    0.47
  -2  -4   3    0.62    0.44
  -2  -4   3    0.20    0.64
  -2  -4   3    0.37    0.87
  -2  -4   3    1.39    0.79
  -2  -4   4   12.08    1.51
  -2  -4   4   10.33    1.22
  -2  -4   4   12.14    1.10
  -2  -4   4   13.39    1.28
  -2  -4   4    9.29    1.59
  -2  -4   5  130.32    8.83
  -2  -4   5  159.78    8.87
  -2  -4   5  140.95    8.32
  -2  -4   6    1.60    0.63
  -2  -4   6    1.56    0.47
  -2  -4   6    2.18    0.90
  -2  -4   7    7.76    1.06
  -2  -4   7    6.34    0.92
  -2  -4   7    7.48    0.80
  -2  -4   8    3.65    0.53
  -2  -4   8    3.69    0.62
  -2  -4   9    4.99    0.50
  -2  -3 -12   22.85    2.31
  -2  -3 -12   14.27    1.74
  -2  -3 -12   17.18    3.75
  -2  -3 -11   27.07    2.88
  -2  -3 -11   21.48    4.89
  -2  -3 -11   26.18    2.65
  -2  -3 -11   26.37    2.74
  -2  -3 -10   41.49    3.84
  -2  -3 -10   43.36    3.83
  -2  -3 -10   46.94    6.71
  -2  -3 -10   48.60    4.69
  -2  -3 -10   45.16    6.56
  -2  -3 -10   43.29    3.88
  -2  -3  -9   30.27    3.09
  -2  -3  -9   27.37    3.01
  -2  -3  -9   32.37    5.24
  -2  -3  -9   30.95    3.57
  -2  -3  -9   28.96    5.45
  -2  -3  -8 1020.46   54.32
  -2  -3  -8  832.90   57.43
  -2  -3  -8  924.63   58.40
  -2  -3  -8 1013.53   55.41
  -2  -3  -8  936.64   54.73
  -2  -3  -8  967.55   57.47
  -2  -3  -7    0.54    1.49
  -2  -3  -7    1.60    2.00
  -2  -3  -7    2.90    1.07
  -2  -3  -7    1.95    0.98
  -2  -3  -7    1.70    1.82
  -2  -3  -6    2.46    0.74
  -2  -3  -6    2.66    1.03
  -2  -3  -6    4.62    2.04
  -2  -3  -6    2.68    1.86
  -2  -3  -6   -0.41    1.88
  -2  -3  -6    2.80    1.71
  -2  -3  -6    3.01    1.01
  -2  -3  -5  624.85   34.82
  -2  -3  -5  635.62   33.62
  -2  -3  -5  623.35   34.97
  -2  -3  -5  590.68   35.12
  -2  -3  -5  680.27   36.23
  -2  -3  -5  617.23   33.11
  -2  -3  -4  267.73   16.38
  -2  -3  -4  264.58   15.14
  -2  -3  -4  273.46   16.32
  -2  -3  -4  258.71   16.55
  -2  -3  -4  220.83   14.93
  -2  -3  -4  261.86   16.93
  -2  -3  -4  223.05   15.58
  -2  -3  -4  259.30   14.74
  -2  -3  -3  418.41   22.38
  -2  -3  -3  383.72   23.35
  -2  -3  -3  398.78   22.34
  -2  -3  -3  369.86   23.45
  -2  -3  -3  379.13   21.67
  -2  -3  -3  362.08   22.51
  -2  -3  -3  356.00   23.00
  -2  -3  -3  401.71   21.97
  -2  -3  -2   71.90    6.26
  -2  -3  -2   68.32    5.79
  -2  -3  -2   86.95    5.99
  -2  -3  -2   58.81    5.57
  -2  -3  -2   88.93    6.76
  -2  -3  -2   84.78    6.41
  -2  -3  -2   91.96    6.91
  -2  -3  -2   88.06    5.16
  -2  -3  -2   67.87    5.81
  -2  -3  -2   82.38    6.23
  -2  -3  -1   17.33    2.45
  -2  -3  -1   13.82    1.99
  -2  -3  -1   13.15    1.98
  -2  -3  -1   17.57    2.56
  -2  -3  -1    8.06    0.88
  -2  -3  -1   14.25    2.10
  -2  -3  -1   13.61    2.04
  -2  -3   0 2875.03  166.79
  -2  -3   0 3079.49  167.80
  -2  -3   0 3188.52  167.88
  -2  -3   0 2880.51  168.09
  -2  -3   1   15.33    1.47
  -2  -3   1   21.12    2.95
  -2  -3   1   11.77    2.35
  -2  -3   1   14.75    2.40
  -2  -3   1   15.65    2.25
  -2  -3   1   15.84    2.34
  -2  -3   1   17.36    1.67
  -2  -3   2  312.88   21.97
  -2  -3   2  386.26   19.95
  -2  -3   2  358.84   20.15
  -2  -3   2  370.01   20.00
  -2  -3   2  345.89   19.77
  -2  -3   2  315.66   19.85
  -2  -3   3   35.59    2.75
  -2  -3   3   33.78    2.83
  -2  -3   3   27.29    4.87
  -2  -3   3   31.90    2.70
  -2  -3   3   32.15    2.60
  -2  -3   4    7.58    0.91
  -2  -3   4    5.41    1.10
  -2  -3   4    6.63    0.86
  -2  -3   5  213.32   12.55
  -2  -3   5  234.70   12.18
  -2  -3   5  223.95   11.73
  -2  -3   6    4.21    0.89
  -2  -3   6    3.44    0.63
  -2  -3   6    4.04    0.86
  -2  -3   6    2.13    1.16
  -2  -3   7   16.21    1.50
  -2  -3   7   20.31    1.75
  -2  -3   7   19.79    1.78
  -2  -3   8    2.36    0.55
  -2  -3   8    3.18    0.70
  -2  -3   8    2.30    0.52
  -2  -3   9   77.25    4.30
  -2  -3   9   61.82    4.20
  -2  -3  10    1.29    0.20
  -2  -2 -12   27.16    2.63
  -2  -2 -12   29.59    4.93
  -2  -2 -12   34.22    3.05
  -2  -2 -11   38.12    6.54
  -2  -2 -11   41.22    3.48
  -2  -2 -11   41.75    3.76
  -2  -2 -11   41.35    3.47
  -2  -2 -10   28.04    4.20
  -2  -2 -10   18.67    4.72
  -2  -2 -10   16.54    2.18
  -2  -2 -10   22.90    3.05
  -2  -2 -10   20.51    3.69
  -2  -2 -10   16.54    2.16
  -2  -2 -10   15.50    2.29
  -2  -2  -9   70.65    5.52
  -2  -2  -9   77.36    5.50
  -2  -2  -9   67.40    5.43
  -2  -2  -9   61.62    7.91
  -2  -2  -9   82.88    6.87
  -2  -2  -9   73.27    7.43
  -2  -2  -9   63.69    7.64
  -2  -2  -9   84.09    7.78
  -2  -2  -9   75.12    6.32
  -2  -2  -8   17.96    2.26
  -2  -2  -8   17.66    2.26
  -2  -2  -8   18.21    4.09
  -2  -2  -8   16.15    2.26
  -2  -2  -8   16.42    3.32
  -2  -2  -8   17.26    2.71
  -2  -2  -8   17.24    3.70
  -2  -2  -8   13.77    2.37
  -2  -2  -8   15.99    3.12
  -2  -2  -7    5.59    1.31
  -2  -2  -7    8.19    2.56
  -2  -2  -7    3.69    1.20
  -2  -2  -7    6.34    2.58
  -2  -2  -7    5.37    1.26
  -2  -2  -7    3.88    0.89
  -2  -2  -7    3.44    1.67
  -2  -2  -7    4.36    1.24
  -2  -2  -7    3.87    1.35
  -2  -2  -7    3.14    1.48
  -2  -2  -7    4.95    1.99
  -2  -2  -6    1.29    1.61
  -2  -2  -6    0.28    0.54
  -2  -2  -6   -0.44    1.51
  -2  -2  -6    1.01    0.94
  -2  -2  -6    0.80    0.74
  -2  -2  -6    0.89    0.47
  -2  -2  -6    0.76    0.98
  -2  -2  -6    0.60    0.62
  -2  -2  -6    0.60    1.08
  -2  -2  -5   24.63    3.73
  -2  -2  -5   24.99    3.82
  -2  -2  -5   25.97    2.06
  -2  -2  -5   20.53    2.75
  -2  -2  -5   27.29    2.45
  -2  -2  -5   27.86    2.68
  -2  -2  -5   25.90    2.97
  -2  -2  -5   18.22    3.27
  -2  -2  -5   22.36    2.98
  -2  -2  -4  113.55    7.53
  -2  -2  -4  120.19    7.31
  -2  -2  -4  126.49    7.07
  -2  -2  -4  109.41    7.45
  -2  -2  -4  113.50    6.56
  -2  -2  -4  106.68    8.49
  -2  -2  -4  120.14    8.88
  -2  -2  -4  120.43    9.43
  -2  -2  -4  108.53    7.65
  -2  -2  -4   82.22    6.58
  -2  -2  -3  214.10   15.63
  -2  -2  -3  255.42   15.75
  -2  -2  -3  278.14   15.34
  -2  -2  -3  269.27   15.62
  -2  -2  -3  260.30   15.55
  -2  -2  -3  278.86   15.09
  -2  -2  -3  268.75   14.70
  -2  -2  -3  257.32   16.76
  -2  -2  -3  216.90   15.13
  -2  -2  -3  298.82   16.01
  -2  -2  -2  514.21   28.02
  -2  -2  -2  510.85   28.52
  -2  -2  -2  469.95   28.52
  -2  -2  -2  422.26   28.55
  -2  -2  -2  519.86   27.46
  -2  -2  -2  458.37   28.31
  -2  -2  -2  496.53   27.67
  -2  -2  -2  495.29   28.47
  -2  -2  -2  516.77   27.83
  -2  -2  -1  218.34   11.91
  -2  -2  -1  145.34   11.28
  -2  -2  -1  215.08   12.58
  -2  -2  -1  160.14   11.28
  -2  -2  -1  214.28   11.09
  -2  -2  -1  172.21   10.62
  -2  -2   0   11.32    1.88
  -2  -2   0   13.23    1.78
  -2  -2   0   14.19    2.06
  -2  -2   0   16.18    2.18
  -2  -2   1  279.77   15.21
  -2  -2   1  267.20   16.23
  -2  -2   2   27.74    3.57
  -2  -2   2   38.77    2.92
  -2  -2   2   35.76    4.81
  -2  -2   3   10.99    2.50
  -2  -2   3   12.22    1.49
  -2  -2   3    8.20    1.20
  -2  -2   4    5.65    1.15
  -2  -2   4    5.96    1.08
  -2  -2   5   20.77    1.75
  -2  -2   5   16.20    1.89
  -2  -2   5   14.89    1.38
  -2  -2   5   15.91    1.72
  -2  -2   5   17.79    1.43
  -2  -2   5   16.48    2.12
  -2  -2   6  225.17   12.09
  -2  -2   6  236.40   12.41
  -2  -2   6  231.77   12.36
  -2  -2   7    7.33    0.92
  -2  -2   7    5.73    0.96
  -2  -2   7    5.03    0.93
  -2  -2   8   30.46    2.23
  -2  -2   8   29.44    2.29
  -2  -2   8   29.58    2.36
  -2  -2   9    0.24    0.37
  -2  -2   9   -0.06    0.42
  -2  -2   9    0.29    0.33
  -2  -2  10   55.26    3.49
  -2  -2  10   61.29    3.46
  -2  -1 -12   87.11    5.93
  -2  -1 -12  110.37    6.52
  -2  -1 -11  168.82   10.04
  -2  -1 -11  128.20   12.98
  -2  -1 -11  129.72   12.55
  -2  -1 -11  139.85    9.36
  -2  -1 -10  445.26   26.43
  -2  -1 -10  361.44   23.23
  -2  -1 -10  416.61   29.02
  -2  -1 -10  417.07   26.15
  -2  -1 -10  422.80   24.75
  -2  -1 -10  443.19   23.99
  -2  -1 -10  383.34   23.28
  -2  -1  -9   -0.76    0.97
  -2  -1  -9   -1.56    1.71
  -2  -1  -9   -0.43    1.53
  -2  -1  -9   -0.34    0.71
  -2  -1  -9   -0.57    0.84
  -2  -1  -9   -1.27    1.76
  -2  -1  -9   -0.83    2.10
  -2  -1  -9    0.26    0.85
  -2  -1  -9    0.31    0.83
  -2  -1  -9    0.17    0.84
  -2  -1  -8   45.65    4.73
  -2  -1  -8   44.57    3.84
  -2  -1  -8   50.50    7.47
  -2  -1  -8   49.89    4.45
  -2  -1  -8   38.97    5.90
  -2  -1  -8   47.57    4.49
  -2  -1  -8   46.32    3.95
  -2  -1  -8   40.63    3.74
  -2  -1  -8   44.10    4.05
  -2  -1  -7  175.06   11.33
  -2  -1  -7  164.40   10.67
  -2  -1  -7  148.64   10.11
  -2  -1  -7  165.71   13.38
  -2  -1  -7  167.47   10.93
  -2  -1  -7  179.73   10.48
  -2  -1  -7  151.35   10.15
  -2  -1  -7  163.81   10.19
  -2  -1  -6   44.24    4.20
  -2  -1  -6   51.59    5.97
  -2  -1  -6   46.42    3.96
  -2  -1  -6   48.09    3.78
  -2  -1  -6   47.85    4.07
  -2  -1  -6   50.90    3.82
  -2  -1  -6   53.24    3.87
  -2  -1  -5   80.33    5.23
  -2  -1  -5   80.59    4.81
  -2  -1  -5   88.12    5.90
  -2  -1  -5   88.94    5.33
  -2  -1  -5   86.51    5.62
  -2  -1  -5   66.84    7.01
  -2  -1  -5   79.16    7.40
  -2  -1  -5   78.38    5.43
  -2  -1  -4  480.12   26.09
  -2  -1  -4  494.90   28.53
  -2  -1  -4  488.85   28.61
  -2  -1  -4  479.70   26.30
  -2  -1  -4  449.80   26.10
  -2  -1  -4  459.42   26.37
  -2  -1  -4  488.00   26.67
  -2  -1  -4  469.01   25.77
  -2  -1  -4  362.28   27.52
  -2  -1  -3 5490.29  309.79
  -2  -1  -3 6026.83  309.97
  -2  -1  -3 5923.95  308.36
  -2  -1  -3 5299.03  308.32
  -2  -1  -3 5936.51  308.15
  -2  -1  -3 5285.59  308.31
  -2  -1  -3 5835.25  307.93
  -2  -1  -3 5782.73  310.41
  -2  -1  -3 5433.83  308.28
  -2  -1  -2 9214.58  526.84
  -2  -1  -2 9999.00  527.03
  -2  -1  -2 9077.14  526.93
  -2  -1  -2 9964.57  527.03
  -2  -1  -2 9773.70  526.59
  -2  -1  -1 1193.37   68.59
  -2  -1  -1 1160.63   69.04
  -2  -1  -1 1519.12   70.94
  -2  -1  -1 1455.40   71.59
  -2  -1  -1 1367.33   69.10
  -2  -1  -1 1195.80   69.07
  -2  -1   0  656.99   37.24
  -2  -1   0  700.00   37.32
  -2  -1   0  688.68   37.20
  -2  -1   0  599.91   37.68
  -2  -1   1  245.15   13.99
  -2  -1   1  223.99   15.91
  -2  -1   2    1.34    0.59
  -2  -1   2    2.46    1.43
  -2  -1   3   19.46    2.93
  -2  -1   3   28.31    2.46
  -2  -1   4   23.82    2.51
  -2  -1   4   27.13    2.25
  -2  -1   5  457.65   26.34
  -2  -1   5  447.39   25.55
  -2  -1   6  177.48   10.01
  -2  -1   6  175.21    9.96
  -2  -1   6  154.01    9.83
  -2  -1   6  148.51   10.09
  -2  -1   6  185.26    9.83
  -2  -1   7  409.41   21.68
  -2  -1   7  415.84   21.67
  -2  -1   7  396.45   21.53
  -2  -1   7  419.80   21.53
  -2  -1   8  362.12   21.20
  -2  -1   8  377.66   21.27
  -2  -1   8  364.61   21.11
  -2  -1   8  401.43   21.17
  -2  -1   9   12.92    1.31
  -2  -1   9   16.43    1.44
  -2  -1   9   14.16    1.32
  -2  -1  10    8.00    0.81
  -2  -1  10    8.82    0.91
  -2  -1  11    6.03    0.49
  -2  -1  11    7.13    0.53
  -2   0 -12    4.27    0.43
  -2   0 -12    6.50    1.23
  -2   0 -11   10.87    1.42
  -2   0 -11   11.00    1.78
  -2   0 -11   10.11    0.84
  -2   0 -11    6.60    2.62
  -2   0 -10   -0.45    1.23
  -2   0 -10   -0.35    0.90
  -2   0 -10   -0.81    2.06
  -2   0 -10   -0.69    1.76
  -2   0  -9    8.78    2.12
  -2   0  -9    7.07    1.47
  -2   0  -9    7.31    3.19
  -2   0  -9   15.37    4.72
  -2   0  -9   12.35    2.17
  -2   0  -9   11.64    2.02
  -2   0  -9    8.91    1.57
  -2   0  -9    9.10    1.76
  -2   0  -9    8.73    2.00
  -2   0  -8    5.48    1.55
  -2   0  -8    4.03    1.52
  -2   0  -8    3.51    1.09
  -2   0  -8    4.05    2.92
  -2   0  -8    4.12    1.35
  -2   0  -8    3.20    1.34
  -2   0  -8    3.93    1.15
  -2   0  -7   24.29    3.10
  -2   0  -7   18.04    4.58
  -2   0  -7   13.91    3.28
  -2   0  -7   20.98    2.37
  -2   0  -7   21.87    2.74
  -2   0  -7   23.60    2.39
  -2   0  -7   20.16    2.47
  -2   0  -7   21.02    2.68
  -2   0  -7   24.88    2.64
  -2   0  -6   66.17    4.90
  -2   0  -6   67.09    5.16
  -2   0  -6   69.99    4.73
  -2   0  -6   64.51    5.57
  -2   0  -6   66.99    7.06
  -2   0  -6   72.59    8.20
  -2   0  -6   71.94    5.33
  -2   0  -6   66.52    4.93
  -2   0  -6   78.10    5.33
  -2   0  -5   52.15    3.81
  -2   0  -5   53.68    4.04
  -2   0  -5   51.80    3.61
  -2   0  -5   56.12    4.44
  -2   0  -5   47.66    3.70
  -2   0  -5   48.18    5.50
  -2   0  -5   45.53    5.87
  -2   0  -5   49.40    4.00
  -2   0  -5   53.69    3.95
  -2   0  -4   38.16    2.71
  -2   0  -4   28.69    2.49
  -2   0  -4   33.69    4.32
  -2   0  -4   38.47    2.86
  -2   0  -4   33.17    4.15
  -2   0  -4   34.98    2.75
  -2   0  -4   26.18    3.07
  -2   0  -4   35.66    2.52
  -2   0  -4   30.98    2.88
  -2   0  -3    3.16    1.40
  -2   0  -3    2.50    0.66
  -2   0  -3    2.39    0.53
  -2   0  -3    2.56    1.31
  -2   0  -3    3.60    0.69
  -2   0  -2  364.38   22.47
  -2   0  -2  399.56   22.54
  -2   0  -2  393.79   22.42
  -2   0  -2  338.03   24.01
  -2   0  -2  491.61   22.91
  -2   0  -2  489.15   22.91
  -2   0  -2  366.31   22.48
  -2   0  -1  647.44   38.26
  -2   0  -1  746.67   38.39
  -2   0  -1  617.42   39.11
  -2   0  -1  730.16   39.92
  -2   0  -1  589.51   39.97
  -2   0  -1  762.58   38.64
  -2   0  -1  768.71   38.64
  -2   0  -1  643.94   38.26
  -2   0  -1  719.22   38.39
  -2   0   0 1457.35   81.09
  -2   0   0 1521.21   81.11
  -2   0   0 1459.33   81.13
  -2   0   0 1496.36   81.09
  -2   0   1  376.23   20.25
  -2   0   1  368.49   20.23
  -2   0   1  344.44   20.16
  -2   0   1  301.66   21.59
  -2   0   2   20.99    2.92
  -2   0   2   23.79    2.13
  -2   0   3    4.62    0.97
  -2   0   3    2.96    1.20
  -2   0   4  282.70   16.87
  -2   0   4  289.06   17.00
  -2   0   5    3.26    1.08
  -2   0   5    1.26    0.71
  -2   0   6  115.38    7.38
  -2   0   6  108.39    7.68
  -2   0   6  119.27    7.24
  -2   0   6  131.71    7.27
  -2   0   6  119.28    7.20
  -2   0   6  124.50    7.37
  -2   0   6  116.63    7.22
  -2   0   7   83.71    5.22
  -2   0   7   81.72    5.16
  -2   0   7   83.56    5.17
  -2   0   7   73.87    4.97
  -2   0   7   65.46    4.99
  -2   0   8   59.88    4.17
  -2   0   8   61.94    4.18
  -2   0   8   66.61    4.22
  -2   0   9   33.12    2.54
  -2   0   9   37.33    2.58
  -2   0   9   34.28    2.57
  -2   0  10    2.29    0.56
  -2   0  10    3.55    0.61
  -2   0  11    5.25    0.53
  -2   1 -11   16.08    2.27
  -2   1 -11   11.83    1.66
  -2   1 -11   18.39    2.31
  -2   1 -11   18.12    1.20
  -2   1 -10   24.06    5.13
  -2   1 -10   29.63    2.81
  -2   1  -9   47.18    4.24
  -2   1  -9   45.82    7.71
  -2   1  -9   58.55    5.20
  -2   1  -9   45.13    7.13
  -2   1  -9   50.64    5.40
  -2   1  -9   48.08    5.00
  -2   1  -9   51.34    4.73
  -2   1  -9   53.87    4.86
  -2   1  -8   44.42    4.22
  -2   1  -8   55.39    7.82
  -2   1  -8   50.84    8.19
  -2   1  -8   40.74    4.43
  -2   1  -8   49.45    5.13
  -2   1  -8   48.35    4.53
  -2   1  -8   44.86    4.68
  -2   1  -8   49.10    4.72
  -2   1  -7    8.79    1.96
  -2   1  -7    6.73    1.43
  -2   1  -7    5.12    3.46
  -2   1  -7    7.05    1.65
  -2   1  -7    8.44    3.11
  -2   1  -7    9.24    1.82
  -2   1  -7    8.19    1.51
  -2   1  -7   10.16    1.96
  -2   1  -7    5.88    1.43
  -2   1  -6  339.41   19.11
  -2   1  -6  314.74   18.81
  -2   1  -6  301.75   18.61
  -2   1  -6  392.28   24.55
  -2   1  -6  330.73   19.31
  -2   1  -6  313.69   19.70
  -2   1  -6  301.08   18.65
  -2   1  -6  316.22   19.19
  -2   1  -6  329.30   19.37
  -2   1  -5 1309.72   67.84
  -2   1  -5 1202.09   67.60
  -2   1  -5 1111.16   67.36
  -2   1  -5 1242.82   71.89
  -2   1  -5 1185.87   68.28
  -2   1  -5 1253.38   67.56
  -2   1  -5 1219.80   67.97
  -2   1  -5 1299.07   67.95
  -2   1  -4  101.96    7.33
  -2   1  -4  116.44   10.15
  -2   1  -4  127.02    7.71
  -2   1  -4  128.36    7.61
  -2   1  -4  124.94    7.81
  -2   1  -4  132.03    7.86
  -2   1  -3    0.61    0.40
  -2   1  -3    0.30    0.99
  -2   1  -3    0.20    0.87
  -2   1  -3   -0.36    1.55
  -2   1  -3    0.10    0.51
  -2   1  -3   -0.68    1.27
  -2   1  -3    0.07    0.52
  -2   1  -3    0.47    0.42
  -2   1  -3    0.75    0.50
  -2   1  -3    0.10    0.44
  -2   1  -3    0.41    0.49
  -2   1  -2  427.26   26.59
  -2   1  -2  467.18   26.46
  -2   1  -2  393.52   27.60
  -2   1  -2  472.09   28.13
  -2   1  -2  504.58   26.62
  -2   1  -2  487.19   26.62
  -2   1  -2  491.78   26.63
  -2   1  -2  492.00   26.57
  -2   1  -2  481.63   26.50
  -2   1  -1 4153.73  207.84
  -2   1  -1 4180.74  207.85
  -2   1  -1 4037.62  207.63
  -2   1  -1 3214.68  207.20
  -2   1  -1 3954.44  207.64
  -2   1  -1 3718.06  208.85
  -2   1  -1 3582.65  209.21
  -2   1  -1 4477.38  207.63
  -2   1   0 6914.78  363.44
  -2   1   0 6905.92  363.43
  -2   1   0 6347.98  363.01
  -2   1   0 5800.11  364.79
  -2   1   0 6788.41  364.32
  -2   1   0 7046.44  363.12
  -2   1   0 6596.70  363.26
  -2   1   1  349.41   19.88
  -2   1   1  334.72   19.86
  -2   1   1  384.40   19.91
  -2   1   1  303.70   21.14
  -2   1   2  700.53   38.33
  -2   1   2  691.82   38.34
  -2   1   2  652.89   39.71
  -2   1   3  645.77   36.72
  -2   1   3  665.47   36.75
  -2   1   3  680.29   38.14
  -2   1   4  195.34   12.01
  -2   1   5   19.88    1.76
  -2   1   5   16.77    2.26
  -2   1   6    0.13    0.36
  -2   1   6    0.89    0.37
  -2   1   6    1.96    0.50
  -2   1   6    0.69    0.73
  -2   1   7    0.88    0.50
  -2   1   7    1.17    0.45
  -2   1   7    1.41    0.52
  -2   1   7    1.62    0.53
  -2   1   7    1.60    0.53
  -2   1   7    1.91    0.57
  -2   1   7    2.12    0.66
  -2   1   7    0.71    0.54
  -2   1   7    2.24    1.01
  -2   1   8  163.20   10.01
  -2   1   8  186.68    9.97
  -2   1   8  175.69    9.95
  -2   1   8  177.40   10.16
  -2   1   8  148.81   10.00
  -2   1   9    2.86    0.65
  -2   1   9    2.88    0.63
  -2   1   9    2.48    0.68
  -2   1   9    2.55    0.69
  -2   1  10   29.03    2.05
  -2   1  10   25.02    2.02
  -2   1  10   27.45    2.00
  -2   1  11    0.10    0.28
  -2   1  11   -0.10    0.28
  -2   2 -11    1.30    0.88
  -2   2 -11   -0.04    0.18
  -2   2 -10   17.18    2.60
  -2   2 -10   16.41    2.02
  -2   2  -9    1.55    2.13
  -2   2  -9    0.40    1.10
  -2   2  -9    0.54    1.68
  -2   2  -8    0.52    0.88
  -2   2  -8   -0.48    1.38
  -2   2  -8    0.72    0.84
  -2   2  -8    1.81    2.49
  -2   2  -8   -0.27    0.78
  -2   2  -8   -0.29    0.73
  -2   2  -7    4.19    1.34
  -2   2  -7    2.83    1.18
  -2   2  -7    3.54    1.29
  -2   2  -7    4.44    1.69
  -2   2  -7    4.03    1.40
  -2   2  -7    6.33    3.64
  -2   2  -7    1.39    0.81
  -2   2  -6   31.63    3.41
  -2   2  -6   31.76    3.40
  -2   2  -6   31.04    3.11
  -2   2  -6   30.29    3.43
  -2   2  -6   28.10    3.53
  -2   2  -6   24.22    4.89
  -2   2  -6   25.09    5.63
  -2   2  -6   31.11    3.41
  -2   2  -6   32.54    3.19
  -2   2  -5   45.51    3.86
  -2   2  -5   44.09    3.97
  -2   2  -5   48.63    4.18
  -2   2  -5   53.14    4.37
  -2   2  -5   48.45    4.23
  -2   2  -5   39.74    6.53
  -2   2  -5   40.11    6.01
  -2   2  -5   48.39    3.98
  -2   2  -4   39.44    3.25
  -2   2  -4   38.42    3.27
  -2   2  -4   36.55    3.30
  -2   2  -4   34.44    3.09
  -2   2  -4   32.58    4.97
  -2   2  -4   36.31    3.32
  -2   2  -4   35.08    3.08
  -2   2  -4   42.53    3.24
  -2   2  -4   43.48    3.53
  -2   2  -3   52.85    3.84
  -2   2  -3   47.54    3.96
  -2   2  -3   51.06    3.67
  -2   2  -3   43.72    5.60
  -2   2  -3   44.77    3.66
  -2   2  -3   43.05    4.54
  -2   2  -3   50.73    3.78
  -2   2  -3   51.26    3.72
  -2   2  -3   48.22    3.66
  -2   2  -2  291.81   17.35
  -2   2  -2  302.83   17.04
  -2   2  -2  302.49   17.20
  -2   2  -2  268.36   19.18
  -2   2  -2  315.80   17.29
  -2   2  -2  290.76   17.21
  -2   2  -2  308.44   17.28
  -2   2  -2  273.19   18.09
  -2   2  -1  242.65   14.83
  -2   2  -1  206.27   13.81
  -2   2  -1  213.57   13.07
  -2   2  -1  214.18   12.99
  -2   2  -1  221.62   13.17
  -2   2  -1  231.63   13.21
  -2   2  -1  228.82   12.81
  -2   2  -1  242.25   13.19
  -2   2   0  277.64   14.85
  -2   2   0  296.85   17.08
  -2   2   0  241.74   14.70
  -2   2   0  263.12   14.58
  -2   2   0  265.53   14.97
  -2   2   0  253.70   15.17
  -2   2   0  259.45   15.20
  -2   2   1  602.53   33.16
  -2   2   1  592.23   33.18
  -2   2   2  395.80   23.30
  -2   2   2  400.63   23.31
  -2   2   2  406.96   23.22
  -2   2   3  356.42   20.46
  -2   2   3  353.04   20.44
  -2   2   3  361.67   20.58
  -2   2   4   93.60    6.03
  -2   2   4   89.49    6.00
  -2   2   4   92.80    6.39
  -2   2   5  508.52   30.26
  -2   2   5  491.51   30.23
  -2   2   6   14.75    1.59
  -2   2   7   95.22    5.45
  -2   2   7   87.93    5.31
  -2   2   7   89.85    5.30
  -2   2   7   82.97    5.37
  -2   2   7   74.94    5.18
  -2   2   7   81.87    5.33
  -2   2   7  101.47    5.65
  -2   2   7  101.01    5.37
  -2   2   7   83.84    5.71
  -2   2   7   74.29    5.39
  -2   2   8    0.13    0.40
  -2   2   8   -0.35    0.43
  -2   2   8   -0.24    0.39
  -2   2   8    0.37    0.46
  -2   2   8    0.18    0.45
  -2   2   8    0.09    0.50
  -2   2   8    0.42    0.54
  -2   2   8   -0.24    0.74
  -2   2   9  160.23    9.13
  -2   2   9  168.30    9.13
  -2   2   9  146.58    9.15
  -2   2   9  163.12    9.39
  -2   2   9  164.46    9.03
  -2   2   9  132.09    9.16
  -2   2  10    3.43    0.65
  -2   2  10    3.18    0.63
  -2   2  11    0.43    0.29
  -2   3 -10   34.10    2.82
  -2   3 -10   39.09    2.30
  -2   3 -10   30.48    3.00
  -2   3  -9  167.51   11.10
  -2   3  -8    0.78    0.94
  -2   3  -8    2.31    1.10
  -2   3  -8    1.91    1.27
  -2   3  -8    1.26    0.38
  -2   3  -8    1.00    1.21
  -2   3  -8    0.55    1.72
  -2   3  -7   22.74    3.04
  -2   3  -7   25.92    3.25
  -2   3  -7   17.57    3.07
  -2   3  -7   20.56    2.86
  -2   3  -7   26.56    3.70
  -2   3  -7   26.37    5.62
  -2   3  -7   23.61    3.12
  -2   3  -7   25.36    2.94
  -2   3  -6    0.78    0.81
  -2   3  -6    1.87    1.09
  -2   3  -6    0.45    0.70
  -2   3  -6    0.29    1.98
  -2   3  -6    2.03    1.44
  -2   3  -6    4.24    2.92
  -2   3  -6    0.51    0.95
  -2   3  -5   25.69    2.97
  -2   3  -5   29.12    2.83
  -2   3  -5   19.30    4.81
  -2   3  -5   27.77    3.15
  -2   3  -5   28.94    3.09
  -2   3  -5   25.96    3.41
  -2   3  -5   29.40    3.15
  -2   3  -4    7.70    1.36
  -2   3  -4    6.99    1.59
  -2   3  -4    4.29    2.25
  -2   3  -4    9.35    1.60
  -2   3  -4   10.46    1.62
  -2   3  -4    8.36    1.60
  -2   3  -3   60.43    4.96
  -2   3  -3   69.24    5.57
  -2   3  -3   72.15    5.59
  -2   3  -3   74.14    5.21
  -2   3  -3   65.96    5.08
  -2   3  -3   63.79    5.03
  -2   3  -3   75.72    5.04
  -2   3  -3   75.33    5.41
  -2   3  -3   82.95    5.45
  -2   3  -2    2.53    0.86
  -2   3  -2    1.65    0.73
  -2   3  -2    2.76    0.87
  -2   3  -2    2.31    1.14
  -2   3  -2    2.28    1.21
  -2   3  -2    1.51    0.76
  -2   3  -2    1.53    0.72
  -2   3  -2    0.23    1.09
  -2   3  -2    0.93    0.54
  -2   3  -2    1.21    0.57
  -2   3  -2    2.20    0.62
  -2   3  -2    1.78    0.76
  -2   3  -2    3.10    0.79
  -2   3  -1  634.17   38.54
  -2   3  -1  756.95   39.05
  -2   3  -1  686.79   39.10
  -2   3  -1  641.39   39.06
  -2   3  -1  726.69   38.86
  -2   3  -1  709.62   38.81
  -2   3  -1  689.39   38.07
  -2   3  -1  695.74   38.67
  -2   3   0   67.50    4.60
  -2   3   0   67.45    4.59
  -2   3   0   61.83    4.27
  -2   3   0   59.10    4.09
  -2   3   0   60.18    3.72
  -2   3   0   62.95    4.51
  -2   3   1  970.48   47.64
  -2   3   1  941.99   48.02
  -2   3   1  919.75   47.36
  -2   3   2   23.55    2.03
  -2   3   2   27.00    2.45
  -2   3   2   22.36    2.29
  -2   3   3    8.72    1.33
  -2   3   3    5.76    1.15
  -2   3   3    8.57    0.86
  -2   3   3    7.77    1.17
  -2   3   3    7.87    1.05
  -2   3   4    5.17    1.17
  -2   3   4    6.61    1.21
  -2   3   4    6.24    1.19
  -2   3   5  168.50   10.85
  -2   3   5  185.07   10.98
  -2   3   6  328.76   18.50
  -2   3   6  371.80   18.71
  -2   3   6  320.58   18.60
  -2   3   6  307.40   18.66
  -2   3   7    6.14    0.81
  -2   3   7    6.32    0.92
  -2   3   7    5.92    0.81
  -2   3   7    5.34    0.82
  -2   3   7    5.63    0.78
  -2   3   7    6.38    0.88
  -2   3   7    6.01    1.01
  -2   3   7    5.08    0.84
  -2   3   7    4.52    0.95
  -2   3   8    2.14    0.66
  -2   3   8    2.64    0.61
  -2   3   8    3.12    0.62
  -2   3   8    2.88    0.70
  -2   3   8    3.34    0.71
  -2   3   8    1.39    0.76
  -2   3   8    2.14    0.72
  -2   3   9  259.49   14.62
  -2   3   9  280.52   14.68
  -2   3   9  267.01   14.52
  -2   3   9  267.69   14.62
  -2   3   9  220.19   14.70
  -2   3   9  243.34   14.64
  -2   3  10    1.89    0.47
  -2   3  10    1.83    0.54
  -2   3  11    4.15    0.55
  -2   4 -10   20.94    1.30
  -2   4  -9    7.57    1.21
  -2   4  -9    5.08    1.33
  -2   4  -8    1.44    1.51
  -2   4  -8    0.39    0.33
  -2   4  -7   85.00    5.22
  -2   4  -7   79.30    8.96
  -2   4  -7  100.28    7.27
  -2   4  -7   88.87    7.17
  -2   4  -6   84.73    6.60
  -2   4  -6   85.93    6.86
  -2   4  -6   84.46    7.47
  -2   4  -6   76.02    8.97
  -2   4  -6   96.33    7.08
  -2   4  -6   73.93    6.84
  -2   4  -5    7.97    2.26
  -2   4  -5   12.84    2.85
  -2   4  -5   17.68    2.48
  -2   4  -5   14.12    2.57
  -2   4  -5   15.30    3.75
  -2   4  -5   14.39    2.31
  -2   4  -5   14.21    2.10
  -2   4  -5   15.27    2.46
  -2   4  -4   10.43    2.27
  -2   4  -4   10.65    2.43
  -2   4  -4    9.55    1.46
  -2   4  -4   11.01    1.95
  -2   4  -4    9.52    2.90
  -2   4  -4    8.82    1.98
  -2   4  -4   12.67    1.76
  -2   4  -4   10.57    1.90
  -2   4  -4   12.25    1.98
  -2   4  -3    2.31    0.94
  -2   4  -3    1.90    0.99
  -2   4  -3    0.76    1.48
  -2   4  -3    0.78    1.51
  -2   4  -3    2.15    0.88
  -2   4  -3    1.24    1.59
  -2   4  -3    2.21    0.92
  -2   4  -3    1.74    0.73
  -2   4  -3    1.05    0.61
  -2   4  -3    2.60    1.04
  -2   4  -3    2.07    0.75
  -2   4  -2   18.49    2.96
  -2   4  -2   18.16    2.26
  -2   4  -2   18.08    1.79
  -2   4  -2   20.68    1.98
  -2   4  -2   23.42    2.65
  -2   4  -2   25.43    2.29
  -2   4  -2   22.68    2.49
  -2   4  -2   18.82    2.35
  -2   4  -2   16.56    2.34
  -2   4  -2   18.66    2.26
  -2   4  -2   23.13    2.43
  -2   4  -2   20.03    2.15
  -2   4  -2   15.83    2.84
  -2   4  -1  972.97   56.86
  -2   4  -1 1058.43   56.40
  -2   4  -1 1104.25   57.03
  -2   4  -1 1009.38   55.90
  -2   4  -1 1088.68   56.46
  -2   4  -1  952.18   56.89
  -2   4  -1  974.56   57.63
  -2   4  -1 1036.76   57.82
  -2   4  -1  964.09   57.10
  -2   4  -1 1024.58   57.19
  -2   4   0  284.45   17.36
  -2   4   0  271.88   17.03
  -2   4   0  322.12   17.78
  -2   4   0  252.56   16.81
  -2   4   0  344.07   16.85
  -2   4   0  286.51   16.32
  -2   4   0  303.39   17.54
  -2   4   0  297.29   17.50
  -2   4   0  289.39   17.04
  -2   4   1  309.57   17.67
  -2   4   1  260.88   17.23
  -2   4   1  339.72   18.34
  -2   4   1  332.66   17.22
  -2   4   1  329.09   18.46
  -2   4   1  317.10   18.41
  -2   4   2   88.89    5.07
  -2   4   2   73.76    5.97
  -2   4   2   80.37    6.09
  -2   4   2   80.11    5.34
  -2   4   3    5.91    1.32
  -2   4   3   10.12    1.62
  -2   4   3    8.73    1.11
  -2   4   3    8.33    1.18
  -2   4   4  250.48   15.89
  -2   4   4  232.93   16.57
  -2   4   4  251.47   16.68
  -2   4   4  292.16   16.16
  -2   4   5   34.12    3.29
  -2   4   5   32.91    3.25
  -2   4   6    5.45    0.90
  -2   4   6    4.63    0.74
  -2   4   6    4.31    0.68
  -2   4   6    4.52    0.90
  -2   4   6    5.31    0.81
  -2   4   6    5.86    0.76
  -2   4   6    4.45    0.78
  -2   4   6    7.99    0.93
  -2   4   7  253.31   15.19
  -2   4   7  235.24   15.02
  -2   4   7  284.88   15.19
  -2   4   7  291.69   15.25
  -2   4   7  258.73   15.07
  -2   4   7  295.35   15.34
  -2   4   8    5.63    0.81
  -2   4   8    5.25    0.87
  -2   4   8    6.27    0.97
  -2   4   8    3.98    0.72
  -2   4   8    6.59    0.82
  -2   4   9   82.67    4.87
  -2   4   9   81.33    4.94
  -2   4   9   72.92    4.77
  -2   4   9   73.19    4.81
  -2   4   9   85.55    5.02
  -2   4   9   79.60    4.80
  -2   4  10    0.15    0.76
  -2   4  10    0.66    0.43
  -2   4  10    0.69    0.42
  -2   4  11   10.95    1.14
  -2   5  -8    6.30    0.61
  -2   5  -8    5.84    1.38
  -2   5  -7    2.53    1.69
  -2   5  -7    0.22    0.36
  -2   5  -7    1.72    1.33
  -2   5  -7   -0.14    1.12
  -2   5  -6  108.17    8.16
  -2   5  -6  111.93    8.45
  -2   5  -6  124.36    7.87
  -2   5  -6  109.07   10.26
  -2   5  -6  106.80    6.53
  -2   5  -6  107.18   10.06
  -2   5  -5    0.50    1.76
  -2   5  -5    0.28    0.71
  -2   5  -5   -0.37    1.19
  -2   5  -5   -1.62    2.17
  -2   5  -5    0.34    0.87
  -2   5  -5   -2.10    1.89
  -2   5  -5   -0.81    0.79
  -2   5  -4  219.52   14.72
  -2   5  -4  242.58   15.08
  -2   5  -4  261.15   14.40
  -2   5  -4  207.62   16.61
  -2   5  -4  214.37   15.27
  -2   5  -4  215.70   14.89
  -2   5  -4  223.67   16.78
  -2   5  -3  259.72   18.80
  -2   5  -3  263.79   18.85
  -2   5  -3  306.17   17.66
  -2   5  -3  312.40   21.01
  -2   5  -3  352.83   19.48
  -2   5  -3  354.06   18.30
  -2   5  -3  324.43   19.47
  -2   5  -3  363.77   18.89
  -2   5  -3  346.01   21.43
  -2   5  -3  294.28   19.62
  -2   5  -3  306.08   19.32
  -2   5  -3  336.14   19.69
  -2   5  -2   52.37    3.36
  -2   5  -2   49.25    4.50
  -2   5  -2   48.43    4.48
  -2   5  -2   61.04    4.76
  -2   5  -2   50.67    4.63
  -2   5  -2   56.83    4.16
  -2   5  -2   53.53    5.50
  -2   5  -2   45.03    4.51
  -2   5  -2   54.59    5.60
  -2   5  -2   51.68    4.50
  -2   5  -1  182.72   12.23
  -2   5  -1  181.18   11.73
  -2   5  -1  217.21   10.72
  -2   5  -1  177.48   11.25
  -2   5  -1  175.29   12.13
  -2   5  -1  185.39   12.18
  -2   5  -1  153.89   11.67
  -2   5  -1  166.47   12.53
  -2   5  -1  179.06   11.74
  -2   5   0   34.29    2.20
  -2   5   0   30.37    2.52
  -2   5   0   29.89    2.76
  -2   5   0   28.33    3.06
  -2   5   0   22.23    2.54
  -2   5   0   31.92    3.27
  -2   5   0   27.67    3.08
  -2   5   1  216.05   13.75
  -2   5   1  221.26   14.81
  -2   5   1  222.55   14.82
  -2   5   1  221.10   14.61
  -2   5   1  212.28   13.86
  -2   5   2  118.03    7.03
  -2   5   3  135.49    8.94
  -2   5   3  126.82    8.71
  -2   5   3  133.46    9.83
  -2   5   3  123.24    9.71
  -2   5   4  161.94   11.21
  -2   5   4  157.05   11.12
  -2   5   4  179.93   10.38
  -2   5   4  163.28   10.10
  -2   5   5   48.54    4.50
  -2   5   5   45.07    4.36
  -2   5   5   44.94    3.13
  -2   5   5   50.14    3.24
  -2   5   5   47.25    3.27
  -2   5   5   46.03    3.20
  -2   5   5   48.49    3.70
  -2   5   6   32.03    2.66
  -2   5   6   34.47    2.41
  -2   5   6   31.46    2.39
  -2   5   6   24.46    3.09
  -2   5   6   27.97    3.23
  -2   5   7  171.85   10.09
  -2   5   7  181.86   10.21
  -2   5   7  164.83   10.05
  -2   5   7  171.16   10.36
  -2   5   8   55.93    3.63
  -2   5   8   53.09    3.72
  -2   5   8   55.89    3.70
  -2   5   8   57.66    4.04
  -2   5   9    8.50    1.06
  -2   5   9    8.56    0.89
  -2   5   9    8.49    1.03
  -2   5   9    6.26    0.88
  -2   5   9    9.46    1.37
  -2   5  10   10.35    1.10
  -2   5  10   14.18    1.31
  -2   5  10   13.53    1.46
  -2   5  11   42.22    2.76
  -2   5  11   41.06    2.63
  -2   6  -8    3.27    0.33
  -2   6  -7    2.06    0.92
  -2   6  -7    1.84    0.39
  -2   6  -7    2.45    0.41
  -2   6  -6   55.84    4.28
  -2   6  -6   58.65    4.78
  -2   6  -6   59.33    3.65
  -2   6  -5   16.60    2.13
  -2   6  -5   14.83    1.34
  -2   6  -5   14.21    2.47
  -2   6  -4  528.96   29.43
  -2   6  -4  516.54   29.69
  -2   6  -4  512.48   28.69
  -2   6  -4  432.33   29.76
  -2   6  -4  502.60   31.26
  -2   6  -4  494.18   27.69
  -2   6  -4  505.44   29.89
  -2   6  -3  418.63   22.88
  -2   6  -3  400.73   23.05
  -2   6  -3  393.60   22.13
  -2   6  -3  331.52   23.07
  -2   6  -3  371.50   21.13
  -2   6  -3  354.12   24.17
  -2   6  -2  671.63   35.51
  -2   6  -2  702.47   37.87
  -2   6  -2  602.55   35.50
  -2   6  -2  717.84   37.15
  -2   6  -2  683.97   37.16
  -2   6  -2  668.07   36.34
  -2   6  -2  588.35   37.23
  -2   6  -2  590.05   38.10
  -2   6  -2  653.31   35.48
  -2   6  -2  584.28   37.14
  -2   6  -2  578.30   37.08
  -2   6  -1  206.90   13.92
  -2   6  -1  211.39   13.92
  -2   6  -1  209.29   13.27
  -2   6  -1  207.95   12.76
  -2   6  -1  218.12   12.17
  -2   6  -1  179.19   13.29
  -2   6  -1  216.85   14.06
  -2   6  -1  212.39   12.24
  -2   6  -1  219.16   12.13
  -2   6   0    5.95    1.16
  -2   6   0    6.27    1.57
  -2   6   0    5.26    1.53
  -2   6   0    7.10    0.93
  -2   6   0    6.15    0.80
  -2   6   0    5.41    0.78
  -2   6   0    5.87    1.48
  -2   6   0    7.10    0.86
  -2   6   1    1.03    0.47
  -2   6   1    0.37    0.37
  -2   6   1    1.16    0.52
  -2   6   1    0.52    0.72
  -2   6   1    1.32    0.87
  -2   6   1    0.58    0.68
  -2   6   1    0.92    0.76
  -2   6   2  130.40    8.21
  -2   6   2  149.33    8.33
  -2   6   2  147.24   10.14
  -2   6   2  135.52    9.95
  -2   6   2  144.93    8.33
  -2   6   3    1.40    0.81
  -2   6   3    1.50    0.57
  -2   6   3    1.22    0.52
  -2   6   3    1.95    0.59
  -2   6   3   -0.28    0.88
  -2   6   3    1.98    1.02
  -2   6   3    1.33    0.52
  -2   6   4   66.22    4.37
  -2   6   4   68.58    4.81
  -2   6   4   62.49    4.20
  -2   6   4   61.85    4.40
  -2   6   4   71.79    4.34
  -2   6   4   70.03    6.02
  -2   6   4   61.50    5.74
  -2   6   4   66.73    4.25
  -2   6   5  329.84   20.20
  -2   6   5  382.15   20.89
  -2   6   5  361.21   20.27
  -2   6   5  358.22   20.18
  -2   6   5  348.85   20.33
  -2   6   5  385.13   20.30
  -2   6   5  321.12   21.92
  -2   6   5  333.59   22.00
  -2   6   5  369.58   20.11
  -2   6   6  579.22   31.51
  -2   6   6  535.67   31.44
  -2   6   6  499.25   33.10
  -2   6   6  495.93   33.06
  -2   6   6  610.21   31.65
  -2   6   6  597.25   31.59
  -2   6   7  340.59   19.47
  -2   6   7  346.28   19.43
  -2   6   8    4.70    0.90
  -2   6   8    4.45    0.81
  -2   6   9  142.29    7.97
  -2   6   9  123.15    7.63
  -2   6   9  143.64    8.16
  -2   6  10    8.80    0.92
  -2   6  10    8.89    1.18
  -2   6  10    8.16    0.99
  -2   6  11   36.73    2.47
  -2   6  11   38.99    2.41
  -2   7  -6   37.77    2.36
  -2   7  -5    8.86    0.89
  -2   7  -4    3.86    1.00
  -2   7  -4    3.61    0.65
  -2   7  -3   13.96    1.31
  -2   7  -3   16.92    1.89
  -2   7  -2   10.17    1.56
  -2   7  -2   13.09    1.21
  -2   7  -2   10.95    1.17
  -2   7  -2   11.80    2.20
  -2   7  -2    9.33    1.12
  -2   7  -1   72.51    5.47
  -2   7  -1   70.78    6.48
  -2   7  -1   71.63    6.49
  -2   7  -1   84.91    4.96
  -2   7  -1   84.13    5.02
  -2   7  -1   73.17    6.54
  -2   7  -1   76.91    5.05
  -2   7   0    5.46    1.19
  -2   7   0    7.78    0.94
  -2   7   0    8.02    0.93
  -2   7   0    7.14    1.77
  -2   7   0    7.75    1.06
  -2   7   0    6.60    1.75
  -2   7   0    6.90    0.96
  -2   7   0   10.46    1.98
  -2   7   1   -0.26    0.60
  -2   7   1    1.53    1.05
  -2   7   1    0.93    0.91
  -2   7   1    0.42    0.49
  -2   7   1    1.05    0.45
  -2   7   1    0.75    0.49
  -2   7   1    1.44    0.56
  -2   7   1   -0.44    0.94
  -2   7   2    1.52    0.86
  -2   7   2    0.68    0.56
  -2   7   2    0.62    0.96
  -2   7   2    1.25    0.92
  -2   7   2    0.58    0.46
  -2   7   2    1.51    0.44
  -2   7   2    0.84    0.55
  -2   7   2    1.18    0.90
  -2   7   3   42.59    3.57
  -2   7   3   37.14    2.96
  -2   7   3   40.84    3.36
  -2   7   3   37.38    2.79
  -2   7   3   43.97    2.95
  -2   7   3   34.34    4.27
  -2   7   3   38.65    4.43
  -2   7   3   40.24    2.90
  -2   7   4   11.26    1.35
  -2   7   4   10.27    1.67
  -2   7   4   11.62    1.28
  -2   7   4   12.87    1.36
  -2   7   4   11.37    2.30
  -2   7   4   13.11    2.51
  -2   7   4   10.98    1.24
  -2   7   5    5.10    1.19
  -2   7   5    2.97    0.73
  -2   7   5    2.56    0.73
  -2   7   5    1.27    0.94
  -2   7   5    2.83    0.73
  -2   7   5    1.28    1.01
  -2   7   5    2.74    0.65
  -2   7   6    4.17    0.90
  -2   7   6    6.79    1.62
  -2   7   6    5.06    1.48
  -2   7   6    7.80    1.07
  -2   7   6    4.34    1.18
  -2   7   6    6.15    0.98
  -2   7   6    4.55    0.91
  -2   7   7   58.67    4.14
  -2   7   7   63.30    4.06
  -2   7   7   56.61    4.03
  -2   7   7   58.15    3.99
  -2   7   8   61.99    4.10
  -2   7   8   61.27    4.02
  -2   7   9   21.47    1.81
  -2   7   9   23.62    1.84
  -2   7  10    1.08    0.37
  -2   7  11    8.38    0.69
  -2   8  -5   15.10    1.07
  -2   8  -4   29.80    2.41
  -2   8  -3    1.33    0.46
  -2   8  -3    1.26    0.38
  -2   8  -3    1.86    0.87
  -2   8  -2    1.05    0.47
  -2   8  -2    0.38    0.75
  -2   8  -2    0.46    0.42
  -2   8  -1    3.00    0.89
  -2   8  -1    5.34    0.74
  -2   8  -1    3.31    0.71
  -2   8  -1    4.23    1.18
  -2   8  -1    5.19    0.80
  -2   8   0   22.09    1.98
  -2   8   0   23.05    1.78
  -2   8   0   22.94    1.79
  -2   8   0   22.66    2.44
  -2   8   0   23.26    1.93
  -2   8   1    0.72    0.75
  -2   8   1    1.37    0.61
  -2   8   1    1.91    0.46
  -2   8   1    0.94    0.52
  -2   8   1    0.73    0.98
  -2   8   1    0.52    0.45
  -2   8   2  243.40   13.83
  -2   8   2  222.98   14.06
  -2   8   2  231.25   15.94
  -2   8   2  233.60   15.92
  -2   8   2  243.39   14.41
  -2   8   2  241.01   13.73
  -2   8   2  251.85   13.70
  -2   8   2  230.11   13.38
  -2   8   3    2.79    0.97
  -2   8   3    2.65    0.73
  -2   8   3    2.41    1.15
  -2   8   3    4.02    0.80
  -2   8   4   90.35    5.91
  -2   8   4   87.17    6.20
  -2   8   4   90.80    5.68
  -2   8   4   96.65    5.87
  -2   8   4  100.75    6.59
  -2   8   4   91.72    5.78
  -2   8   5   14.70    1.85
  -2   8   5   16.43    1.54
  -2   8   5   18.24    1.55
  -2   8   5   15.90    1.53
  -2   8   5   13.40    1.55
  -2   8   6    0.52    0.59
  -2   8   6    0.33    0.57
  -2   8   6    0.62    0.58
  -2   8   6    0.14    0.52
  -2   8   7    9.98    1.24
  -2   8   7   10.21    1.22
  -2   8   8   12.32    1.24
  -2   8   9   32.08    2.25
  -2   8   9   33.67    2.26
  -2   8  10    3.97    0.46
  -2   8  10    4.39    0.53
  -2   9  -3   -0.05    0.20
  -2   9  -2    4.56    0.55
  -2   9  -2    2.96    0.80
  -2   9  -2    4.50    0.56
  -2   9  -1    3.61    0.59
  -2   9  -1    4.66    0.94
  -2   9  -1    4.35    0.57
  -2   9   0   56.65    3.57
  -2   9   0   50.84    3.96
  -2   9   1   47.71    3.60
  -2   9   1   42.33    3.13
  -2   9   1   49.13    3.13
  -2   9   1   43.58    2.94
  -2   9   2  100.78    6.43
  -2   9   2  110.38    6.93
  -2   9   2  104.56    6.29
  -2   9   3  121.85    7.49
  -2   9   3  112.17    6.78
  -2   9   3  105.76    6.86
  -2   9   3  114.63    6.81
  -2   9   4    6.61    0.90
  -2   9   4    4.59    0.91
  -2   9   4    7.52    1.34
  -2   9   4    7.91    0.98
  -2   9   4    7.04    0.86
  -2   9   5    0.88    0.40
  -2   9   5    0.12    0.43
  -2   9   5    0.74    0.53
  -2   9   5    0.15    0.49
  -2   9   6    1.81    0.55
  -2   9   7    1.05    0.47
  -2   9   7    1.06    0.49
  -2   9   8   16.78    1.28
  -2  10  -1   16.27    1.07
  -2  10   0  154.20    8.70
  -2  10   1   29.98    2.05
  -2  10   1   31.80    2.36
  -2  10   2   86.45    5.22
  -2  10   2  101.58    5.79
  -2  10   3    1.77    0.47
  -2  10   3    1.71    0.43
  -2  10   3    1.53    0.36
  -2  10   4   25.46    1.79
  -2  10   4   25.22    1.82
  -2  10   4   25.96    1.74
  -2  10   5    2.62    0.47
  -2  10   5    2.56    0.53
  -2  10   6    1.60    0.38
  -2  10   8   24.24    1.48
  -1 -11  -7    2.05    0.80
  -1 -11  -5    2.92    1.44
  -1 -11  -4    7.19    1.88
  -1 -11  -4   12.25    1.56
  -1 -11  -3   15.38    2.36
  -1 -11  -3   21.28    1.91
  -1 -11  -2   15.18    1.99
  -1 -11  -2   13.76    1.34
  -1 -11  -1    1.70    0.96
  -1 -10  -8   25.10    2.45
  -1 -10  -8   31.81    2.17
  -1 -10  -7   58.15    4.47
  -1 -10  -7   66.59    4.97
  -1 -10  -6   37.89    3.25
  -1 -10  -6   35.39    2.99
  -1 -10  -6   42.20    2.84
  -1 -10  -6   33.44    3.26
  -1 -10  -5    5.91    0.94
  -1 -10  -5    4.27    1.09
  -1 -10  -5    7.69    1.41
  -1 -10  -5    6.80    1.44
  -1 -10  -4    0.72    0.55
  -1 -10  -4    0.60    0.76
  -1 -10  -4    0.96    0.82
  -1 -10  -4    0.78    1.00
  -1 -10  -3   17.37    1.67
  -1 -10  -3   16.63    2.38
  -1 -10  -3   15.56    1.49
  -1 -10  -3   17.51    2.23
  -1 -10  -2    9.30    1.44
  -1 -10  -2   10.28    1.29
  -1 -10  -2    9.96    1.07
  -1 -10  -2    9.72    1.82
  -1 -10  -2   11.55    1.72
  -1 -10  -1    2.73    0.89
  -1 -10  -1    3.73    0.84
  -1 -10  -1    4.61    2.33
  -1 -10  -1    3.40    0.60
  -1 -10  -1    4.78    1.26
  -1 -10  -1    2.08    1.02
  -1 -10   0   16.24    1.57
  -1 -10   1   25.28    2.68
  -1  -9 -10    8.82    1.51
  -1  -9 -10    9.72    1.13
  -1  -9  -9    3.06    2.01
  -1  -9  -9    0.87    0.78
  -1  -9  -9    0.32    0.93
  -1  -9  -9    1.22    0.79
  -1  -9  -9    0.47    0.79
  -1  -9  -8   11.29    3.16
  -1  -9  -8   12.72    1.62
  -1  -9  -8    9.63    1.59
  -1  -9  -7    3.53    2.55
  -1  -9  -7    4.97    2.30
  -1  -9  -7    3.26    1.28
  -1  -9  -7    2.67    0.93
  -1  -9  -7    3.39    1.05
  -1  -9  -7    4.40    1.09
  -1  -9  -7    3.74    1.24
  -1  -9  -6   36.58    6.28
  -1  -9  -6   37.77    5.54
  -1  -9  -6   43.10    3.94
  -1  -9  -6   44.74    3.58
  -1  -9  -6   39.63    3.52
  -1  -9  -5    6.42    1.34
  -1  -9  -5    7.31    1.54
  -1  -9  -5    4.33    1.17
  -1  -9  -5    6.12    1.59
  -1  -9  -5    4.56    2.64
  -1  -9  -5    7.21    1.28
  -1  -9  -5    9.17    3.58
  -1  -9  -5    4.71    2.10
  -1  -9  -4    2.03    1.05
  -1  -9  -4    0.79    1.02
  -1  -9  -4    2.41    0.99
  -1  -9  -4    1.26    0.68
  -1  -9  -4    1.46    1.20
  -1  -9  -4    2.67    1.96
  -1  -9  -4   -0.78    1.98
  -1  -9  -4    0.50    1.16
  -1  -9  -4    2.20    0.84
  -1  -9  -4    1.18    2.03
  -1  -9  -3   85.91    9.25
  -1  -9  -3   74.02    8.21
  -1  -9  -3   96.76    5.76
  -1  -9  -3   78.63    5.94
  -1  -9  -3   82.02    5.94
  -1  -9  -3   83.97    5.66
  -1  -9  -2   49.43    4.09
  -1  -9  -2   34.51    5.30
  -1  -9  -2   41.88    3.36
  -1  -9  -2   36.25    3.34
  -1  -9  -2   48.85    3.77
  -1  -9  -2   42.45    3.21
  -1  -9  -2   41.40    4.18
  -1  -9  -1   35.35    2.98
  -1  -9  -1   32.33    3.07
  -1  -9  -1   31.70    2.61
  -1  -9  -1   35.42    3.61
  -1  -9  -1   37.37    3.42
  -1  -9   0   27.30    2.65
  -1  -9   0   27.00    2.63
  -1  -9   0   32.49    2.41
  -1  -9   0   28.15    2.88
  -1  -9   1    3.14    1.23
  -1  -9   1    3.03    0.88
  -1  -9   1    3.45    0.73
  -1  -9   2    2.09    0.51
  -1  -9   2    3.13    2.10
  -1  -9   3    5.60    0.64
  -1  -8 -11    8.46    1.48
  -1  -8 -10   44.35    3.62
  -1  -8 -10   47.39    6.82
  -1  -8 -10   49.94    4.09
  -1  -8 -10   57.83    4.47
  -1  -8  -9   44.33    6.70
  -1  -8  -9   48.72    3.96
  -1  -8  -8   19.91    2.24
  -1  -8  -8   15.58    1.75
  -1  -8  -8   20.38    4.51
  -1  -8  -8   11.69    4.61
  -1  -8  -8   14.20    3.98
  -1  -8  -8   16.25    3.89
  -1  -8  -7   39.70    3.29
  -1  -8  -7   46.05    3.81
  -1  -8  -7   40.62    3.33
  -1  -8  -7   41.07    3.72
  -1  -8  -7   39.40    7.64
  -1  -8  -7   39.12    6.13
  -1  -8  -7   46.67    7.70
  -1  -8  -6  163.36   12.03
  -1  -8  -6  131.39    8.51
  -1  -8  -6  131.04    8.46
  -1  -8  -6  136.94    8.81
  -1  -8  -6  128.90    8.42
  -1  -8  -6  115.80   11.27
  -1  -8  -6  134.60    8.93
  -1  -8  -6  183.28   15.12
  -1  -8  -6  159.66   12.03
  -1  -8  -6  133.56   12.94
  -1  -8  -6  130.87   12.49
  -1  -8  -6  161.26   15.55
  -1  -8  -6  108.90   10.36
  -1  -8  -5    5.33    1.29
  -1  -8  -5    4.93    1.88
  -1  -8  -5    6.79    1.31
  -1  -8  -5    5.01    1.16
  -1  -8  -5    5.80    1.20
  -1  -8  -5    5.59    1.47
  -1  -8  -5    4.91    2.21
  -1  -8  -5    7.23    2.27
  -1  -8  -5    5.48    2.95
  -1  -8  -5    4.08    2.36
  -1  -8  -5    6.10    2.83
  -1  -8  -5    3.13    1.70
  -1  -8  -5    9.29    3.75
  -1  -8  -5    2.50    2.17
  -1  -8  -4  109.98   11.83
  -1  -8  -4   79.33    9.08
  -1  -8  -4   93.28    8.88
  -1  -8  -4   86.28    8.33
  -1  -8  -4   85.06    6.30
  -1  -8  -4  107.63    6.80
  -1  -8  -4   97.26    6.46
  -1  -8  -4   85.62    6.27
  -1  -8  -4   89.71    9.12
  -1  -8  -4  107.37    6.96
  -1  -8  -4  101.96   10.88
  -1  -8  -4   90.90    8.51
  -1  -8  -4   77.28    9.18
  -1  -8  -4  101.94   10.06
  -1  -8  -4  103.44    6.49
  -1  -8  -3    4.76    1.17
  -1  -8  -3    6.05    1.95
  -1  -8  -3    4.29    1.30
  -1  -8  -3    6.40    1.38
  -1  -8  -3    5.08    1.34
  -1  -8  -3    6.42    1.39
  -1  -8  -3    6.88    2.12
  -1  -8  -3    5.39    2.98
  -1  -8  -3    4.85    2.33
  -1  -8  -3    4.80    3.12
  -1  -8  -3    3.95    2.07
  -1  -8  -3   10.07    3.03
  -1  -8  -3    7.14    1.65
  -1  -8  -2   15.27    3.54
  -1  -8  -2   10.79    3.64
  -1  -8  -2   18.25    3.87
  -1  -8  -2   21.11    2.57
  -1  -8  -2   21.79    2.10
  -1  -8  -2   17.93    2.25
  -1  -8  -2   21.79    2.36
  -1  -8  -1    7.02    1.23
  -1  -8  -1    6.61    2.47
  -1  -8  -1    9.33    1.81
  -1  -8  -1    7.23    2.69
  -1  -8  -1    5.00    2.35
  -1  -8  -1   11.95    1.78
  -1  -8  -1    8.51    1.41
  -1  -8  -1    7.65    1.48
  -1  -8  -1   10.68    1.50
  -1  -8   0   35.84    3.29
  -1  -8   0   44.31    3.38
  -1  -8   0   44.70    5.93
  -1  -8   0   33.31    2.85
  -1  -8   0   36.29    3.50
  -1  -8   0   42.42    5.82
  -1  -8   0   38.29    3.00
  -1  -8   0   38.02    3.86
  -1  -8   1    5.31    1.40
  -1  -8   1    5.77    1.61
  -1  -8   1    3.71    2.00
  -1  -8   1    5.43    1.02
  -1  -8   1    4.89    1.27
  -1  -8   1    4.32    0.97
  -1  -8   1    6.14    1.32
  -1  -8   2   25.93    3.92
  -1  -8   2   32.09    2.56
  -1  -8   2   26.96    2.35
  -1  -8   2   29.73    3.11
  -1  -8   3   97.85    6.27
  -1  -8   3   94.77    5.88
  -1  -8   3   98.28    7.13
  -1  -8   3   92.97    6.10
  -1  -8   4   71.41    4.82
  -1  -8   4   94.07    4.99
  -1  -7 -11  101.67   10.81
  -1  -7 -11  116.02    7.95
  -1  -7 -11  129.68    8.21
  -1  -7 -10  114.09   12.00
  -1  -7 -10  142.66   13.03
  -1  -7  -9  123.08   12.64
  -1  -7  -9  113.42    7.35
  -1  -7  -9   86.88   11.80
  -1  -7  -9  100.76   11.53
  -1  -7  -8   -0.58    2.26
  -1  -7  -8    0.44    0.82
  -1  -7  -8   -0.58    2.10
  -1  -7  -8    0.86    2.67
  -1  -7  -8    0.66    1.81
  -1  -7  -8    0.97    2.65
  -1  -7  -8   -0.76    1.93
  -1  -7  -7   13.39    3.38
  -1  -7  -7    8.38    1.40
  -1  -7  -7   13.73    1.58
  -1  -7  -7   12.16    1.84
  -1  -7  -7   11.32    1.46
  -1  -7  -7   11.08    1.79
  -1  -7  -7   11.77    3.40
  -1  -7  -7   13.50    4.34
  -1  -7  -7    9.37    4.28
  -1  -7  -7    9.99    3.23
  -1  -7  -7   17.05    4.15
  -1  -7  -7   12.83    3.38
  -1  -7  -6    6.18    2.54
  -1  -7  -6    7.36    1.47
  -1  -7  -6    7.07    1.19
  -1  -7  -6    9.63    1.38
  -1  -7  -6    8.35    1.28
  -1  -7  -6    8.23    1.54
  -1  -7  -6   10.12    2.63
  -1  -7  -6    6.73    2.56
  -1  -7  -6    4.71    2.61
  -1  -7  -6    6.34    2.57
  -1  -7  -6    6.95    1.98
  -1  -7  -6    8.11    4.10
  -1  -7  -6   10.73    3.13
  -1  -7  -5    2.33    1.61
  -1  -7  -5    2.96    0.93
  -1  -7  -5    3.70    1.11
  -1  -7  -5    2.20    0.89
  -1  -7  -5    2.38    0.87
  -1  -7  -5    2.33    1.61
  -1  -7  -5    3.30    1.14
  -1  -7  -5    1.87    1.69
  -1  -7  -5    3.62    2.38
  -1  -7  -5    1.67    2.01
  -1  -7  -5    2.54    3.04
  -1  -7  -5    0.38    1.12
  -1  -7  -5    2.04    1.76
  -1  -7  -4  144.20   11.61
  -1  -7  -4  145.64    9.14
  -1  -7  -4  159.84    9.47
  -1  -7  -4  151.79    9.23
  -1  -7  -4  142.77    9.10
  -1  -7  -4  136.30   11.67
  -1  -7  -4  172.29    9.69
  -1  -7  -4  149.64   13.53
  -1  -7  -4  107.89   11.45
  -1  -7  -4  137.21   11.45
  -1  -7  -4  149.03   11.96
  -1  -7  -4  136.75   13.88
  -1  -7  -4  139.23   12.56
  -1  -7  -4  137.34   11.34
  -1  -7  -3    1.02    0.75
  -1  -7  -3    1.52    1.19
  -1  -7  -3    1.74    0.88
  -1  -7  -3    1.95    0.89
  -1  -7  -3    0.78    0.72
  -1  -7  -3    1.21    0.77
  -1  -7  -3    0.77    1.20
  -1  -7  -3    1.87    2.43
  -1  -7  -3    1.49    2.56
  -1  -7  -3    0.41    1.20
  -1  -7  -3    0.95    1.56
  -1  -7  -3    0.44    1.21
  -1  -7  -3    0.72    0.92
  -1  -7  -3    1.98    1.71
  -1  -7  -2   92.39   10.47
  -1  -7  -2   88.80    8.63
  -1  -7  -2  101.88    8.92
  -1  -7  -2   88.19    8.04
  -1  -7  -2   93.50    8.20
  -1  -7  -2  100.86    6.52
  -1  -7  -2   95.11    9.82
  -1  -7  -2   96.73    6.31
  -1  -7  -2   93.49    9.12
  -1  -7  -1  304.28   17.79
  -1  -7  -1  284.18   17.72
  -1  -7  -1  317.54   17.91
  -1  -7  -1  299.02   17.77
  -1  -7  -1  251.03   19.75
  -1  -7  -1  267.31   20.49
  -1  -7  -1  347.29   18.26
  -1  -7  -1  315.95   17.63
  -1  -7  -1  312.58   21.82
  -1  -7   0   62.78    4.88
  -1  -7   0   69.80    5.00
  -1  -7   0   68.60    7.59
  -1  -7   0   72.44    4.69
  -1  -7   0   56.70    6.92
  -1  -7   0   78.22    5.33
  -1  -7   0   67.80    4.73
  -1  -7   0   62.61    5.55
  -1  -7   0   64.42    7.65
  -1  -7   1    1.27    1.32
  -1  -7   1    3.01    1.07
  -1  -7   1    1.94    1.00
  -1  -7   1    2.10    0.76
  -1  -7   1    3.75    1.24
  -1  -7   1    0.48    1.01
  -1  -7   1    1.70    1.87
  -1  -7   1    1.46    0.82
  -1  -7   1    3.23    1.77
  -1  -7   2   10.78    1.56
  -1  -7   2   12.15    2.18
  -1  -7   2    6.85    2.51
  -1  -7   2   12.39    1.57
  -1  -7   2    8.51    1.32
  -1  -7   3   42.19    3.50
  -1  -7   3   46.76    3.47
  -1  -7   3   41.85    4.59
  -1  -7   3   39.00    3.13
  -1  -7   3   35.77    3.69
  -1  -7   4   11.18    2.64
  -1  -7   4    8.65    1.17
  -1  -7   4    7.23    1.31
  -1  -7   4    9.06    1.38
  -1  -7   5   27.34    2.28
  -1  -7   5   24.67    2.01
  -1  -7   6   51.88    3.19
  -1  -6 -12   51.07    4.08
  -1  -6 -11    0.67    0.85
  -1  -6 -11    1.30    1.78
  -1  -6 -11   -0.17    1.02
  -1  -6 -10    0.69    1.77
  -1  -6 -10   -1.45    2.26
  -1  -6  -9   -0.57    1.78
  -1  -6  -9    0.81    2.51
  -1  -6  -9    0.77    0.71
  -1  -6  -9    1.49    2.19
  -1  -6  -9   -0.72    1.97
  -1  -6  -9    1.71    1.87
  -1  -6  -8   30.98    5.08
  -1  -6  -8   28.83    4.96
  -1  -6  -8   30.57    5.99
  -1  -6  -8   27.12    2.60
  -1  -6  -8   18.89    4.25
  -1  -6  -8   26.37    5.33
  -1  -6  -7   12.84    3.41
  -1  -6  -7   12.70    1.45
  -1  -6  -7   11.44    1.70
  -1  -6  -7   17.01    3.74
  -1  -6  -7   16.95    4.45
  -1  -6  -7   12.65    4.55
  -1  -6  -7   17.34    3.87
  -1  -6  -7   16.50    3.38
  -1  -6  -6    1.80    1.63
  -1  -6  -6    0.47    1.90
  -1  -6  -6    4.02    2.61
  -1  -6  -6    2.18    0.90
  -1  -6  -6    2.34    1.46
  -1  -6  -6    2.35    1.89
  -1  -6  -6    2.47    0.72
  -1  -6  -6    2.32    0.73
  -1  -6  -6    2.71    0.77
  -1  -6  -6    2.28    2.73
  -1  -6  -6   -0.73    2.92
  -1  -6  -6    0.50    1.37
  -1  -6  -6    2.31    1.28
  -1  -6  -5   41.50    5.15
  -1  -6  -5   37.33    2.91
  -1  -6  -5   38.58    2.94
  -1  -6  -5   40.82    2.95
  -1  -6  -5   35.83    4.54
  -1  -6  -5   43.41    3.29
  -1  -6  -5   27.48    5.26
  -1  -6  -5   34.86    4.96
  -1  -6  -5   36.34    6.32
  -1  -6  -5   35.81    4.22
  -1  -6  -5   37.45    4.52
  -1  -6  -5   33.72    4.76
  -1  -6  -4  305.54   20.49
  -1  -6  -4  311.88   17.84
  -1  -6  -4  320.05   17.84
  -1  -6  -4  304.14   17.78
  -1  -6  -4  305.47   20.24
  -1  -6  -4  350.30   18.22
  -1  -6  -4  297.39   21.92
  -1  -6  -4  295.55   20.40
  -1  -6  -4  276.98   22.21
  -1  -6  -4  301.45   19.73
  -1  -6  -4  310.46   20.90
  -1  -6  -4  288.40   20.04
  -1  -6  -4  299.26   20.55
  -1  -6  -3   -0.34    1.50
  -1  -6  -3    2.32    0.76
  -1  -6  -3    1.30    0.68
  -1  -6  -3    1.62    0.69
  -1  -6  -3    2.37    0.88
  -1  -6  -3    0.35    1.02
  -1  -6  -3    1.45    1.46
  -1  -6  -3    2.06    1.24
  -1  -6  -3    1.05    1.81
  -1  -6  -3    1.80    1.65
  -1  -6  -3    1.53    1.48
  -1  -6  -3    2.48    1.25
  -1  -6  -3    1.17    1.67
  -1  -6  -3    2.09    1.45
  -1  -6  -2   19.87    3.09
  -1  -6  -2   18.55    1.91
  -1  -6  -2   19.49    1.84
  -1  -6  -2   18.20    1.75
  -1  -6  -2   20.35    3.01
  -1  -6  -2   21.88    3.92
  -1  -6  -2   11.94    2.64
  -1  -6  -2   17.10    4.00
  -1  -6  -2   19.51    3.20
  -1  -6  -2   20.19    3.19
  -1  -6  -2   18.28    3.27
  -1  -6  -1   24.29    3.36
  -1  -6  -1   26.45    3.47
  -1  -6  -1   23.74    2.33
  -1  -6  -1   25.78    2.34
  -1  -6  -1   26.29    2.35
  -1  -6  -1   26.23    2.33
  -1  -6  -1   23.85    3.66
  -1  -6  -1   31.47    2.64
  -1  -6  -1   28.84    4.46
  -1  -6  -1   31.75    3.98
  -1  -6  -1   40.57    5.68
  -1  -6  -1   27.86    3.97
  -1  -6   0    7.06    1.22
  -1  -6   0    8.32    1.27
  -1  -6   0    6.26    1.15
  -1  -6   0    6.25    0.93
  -1  -6   0    6.54    1.16
  -1  -6   0    9.17    1.41
  -1  -6   0    6.94    2.07
  -1  -6   0    6.96    2.45
  -1  -6   0    6.29    1.06
  -1  -6   0    6.66    2.23
  -1  -6   1   58.71    7.03
  -1  -6   1   67.92    7.10
  -1  -6   1   84.83    5.44
  -1  -6   1   78.06    7.97
  -1  -6   1   70.85    4.94
  -1  -6   1   73.97    5.79
  -1  -6   1   79.18    5.27
  -1  -6   1   73.19    4.86
  -1  -6   2   16.89    1.76
  -1  -6   2   14.48    3.36
  -1  -6   2   13.12    1.57
  -1  -6   2   16.46    2.36
  -1  -6   2   11.01    1.47
  -1  -6   2   14.63    1.81
  -1  -6   2    7.02    2.42
  -1  -6   2   13.64    1.81
  -1  -6   3   26.05    2.36
  -1  -6   3   19.64    2.05
  -1  -6   3   20.58    2.72
  -1  -6   3   24.59    2.47
  -1  -6   3   19.60    2.03
  -1  -6   4    0.40    0.31
  -1  -6   4    2.46    1.35
  -1  -6   4    2.35    2.60
  -1  -6   4    0.32    0.68
  -1  -6   4    0.56    0.91
  -1  -6   4    1.87    1.03
  -1  -6   5   19.31    2.15
  -1  -6   5   24.85    1.87
  -1  -6   5   18.93    1.94
  -1  -6   6    1.78    0.60
  -1  -6   7    8.56    0.85
  -1  -5 -12    3.47    1.06
  -1  -5 -12    3.84    1.02
  -1  -5 -11    1.80    1.07
  -1  -5 -11    1.88    1.73
  -1  -5 -11    2.65    1.17
  -1  -5 -10   18.23    3.88
  -1  -5 -10   20.31    4.77
  -1  -5 -10   12.84    3.45
  -1  -5 -10   16.28    4.18
  -1  -5  -9    8.44    2.75
  -1  -5  -9    4.42    2.98
  -1  -5  -9    6.84    2.58
  -1  -5  -9    2.76    2.17
  -1  -5  -9    5.43    2.92
  -1  -5  -8  330.99   22.11
  -1  -5  -8  314.47   22.31
  -1  -5  -8  340.81   22.31
  -1  -5  -8  325.76   23.58
  -1  -5  -8  316.00   18.49
  -1  -5  -8  296.09   22.91
  -1  -5  -8  334.02   24.28
  -1  -5  -7   12.76    3.93
  -1  -5  -7   14.28    4.44
  -1  -5  -7   10.11    2.78
  -1  -5  -7   11.23    2.98
  -1  -5  -7    8.52    3.14
  -1  -5  -7    7.60    2.25
  -1  -5  -7    6.47    2.42
  -1  -5  -6    8.92    3.17
  -1  -5  -6    9.17    2.56
  -1  -5  -6    6.02    0.89
  -1  -5  -6    5.96    0.88
  -1  -5  -6    5.87    2.16
  -1  -5  -6    3.64    1.26
  -1  -5  -6    9.18    2.71
  -1  -5  -6    8.01    3.05
  -1  -5  -6    5.49    1.85
  -1  -5  -6    7.93    1.91
  -1  -5  -6    6.76    1.12
  -1  -5  -6    5.85    1.66
  -1  -5  -5   12.91    3.32
  -1  -5  -5   15.64    2.93
  -1  -5  -5    9.32    1.15
  -1  -5  -5   11.53    1.21
  -1  -5  -5   10.93    1.18
  -1  -5  -5   11.34    1.92
  -1  -5  -5    8.74    2.29
  -1  -5  -5   11.92    2.69
  -1  -5  -5   10.46    3.22
  -1  -5  -5   14.59    2.88
  -1  -5  -5    9.56    2.05
  -1  -5  -5   12.85    2.30
  -1  -5  -5   13.24    1.47
  -1  -5  -4   53.63    6.85
  -1  -5  -4   45.78    6.38
  -1  -5  -4   70.66    5.62
  -1  -5  -4   66.54    4.26
  -1  -5  -4   69.07    4.29
  -1  -5  -4   68.29    4.26
  -1  -5  -4   60.19    6.03
  -1  -5  -4   53.48    6.50
  -1  -5  -4   57.27    5.94
  -1  -5  -4   54.98    5.50
  -1  -5  -4   79.62    4.62
  -1  -5  -4   64.73    6.00
  -1  -5  -4   65.86    5.86
  -1  -5  -3    1.20    1.17
  -1  -5  -3    1.77    1.90
  -1  -5  -3    0.90    0.88
  -1  -5  -3    1.13    0.56
  -1  -5  -3    2.20    0.59
  -1  -5  -3    1.71    0.55
  -1  -5  -3    1.41    1.25
  -1  -5  -3    1.42    1.18
  -1  -5  -3    0.83    1.67
  -1  -5  -3    1.80    0.71
  -1  -5  -3    1.54    1.04
  -1  -5  -3    0.26    1.36
  -1  -5  -2  128.50   10.81
  -1  -5  -2  143.37    9.76
  -1  -5  -2  128.30    9.13
  -1  -5  -2  132.30    7.62
  -1  -5  -2  126.96    7.63
  -1  -5  -2  124.42    7.57
  -1  -5  -2  134.42    9.47
  -1  -5  -2  144.26   10.75
  -1  -5  -2   94.75    8.72
  -1  -5  -2  128.12    9.42
  -1  -5  -2  140.24    7.88
  -1  -5  -2  114.71    9.06
  -1  -5  -2  131.54    9.65
  -1  -5  -2  113.24    9.14
  -1  -5  -1   86.41    6.76
  -1  -5  -1   69.74    6.38
  -1  -5  -1   99.91    8.56
  -1  -5  -1   83.42    5.16
  -1  -5  -1   77.05    5.09
  -1  -5  -1   76.74    5.06
  -1  -5  -1   84.07    6.63
  -1  -5  -1   62.50    5.86
  -1  -5  -1   63.94    5.87
  -1  -5  -1   68.24    6.18
  -1  -5  -1   91.93    6.85
  -1  -5  -1   92.07    7.84
  -1  -5  -1   89.51    6.86
  -1  -5  -1  101.95    5.46
  -1  -5  -1   85.73    6.97
  -1  -5  -1   75.96    6.72
  -1  -5   0    2.15    1.01
  -1  -5   0    2.22    1.10
  -1  -5   0    3.45    1.53
  -1  -5   0    3.43    0.81
  -1  -5   0    2.93    0.77
  -1  -5   0    3.77    0.87
  -1  -5   0    2.89    0.58
  -1  -5   0    1.78    0.68
  -1  -5   0    1.49    1.33
  -1  -5   0    3.08    1.23
  -1  -5   0    2.87    1.37
  -1  -5   0    3.89    0.92
  -1  -5   0    2.43    1.40
  -1  -5   0    1.56    0.98
  -1  -5   1   11.59    2.71
  -1  -5   1   11.29    1.41
  -1  -5   1   13.46    1.51
  -1  -5   1   11.09    1.21
  -1  -5   1   13.29    1.55
  -1  -5   1    9.34    2.19
  -1  -5   1   12.31    2.57
  -1  -5   1   10.86    2.11
  -1  -5   2   17.31    3.55
  -1  -5   2   17.25    3.34
  -1  -5   2   20.79    3.22
  -1  -5   2   19.39    1.99
  -1  -5   2   20.99    2.06
  -1  -5   2   18.92    1.78
  -1  -5   2   17.75    1.91
  -1  -5   3   91.49    8.85
  -1  -5   3  113.92    6.72
  -1  -5   3  104.65    6.34
  -1  -5   3   90.33    6.32
  -1  -5   3   97.28    6.30
  -1  -5   3  101.44    7.14
  -1  -5   3   85.29    5.82
  -1  -5   3  118.51    6.63
  -1  -5   4    3.63    0.99
  -1  -5   4    3.19    1.08
  -1  -5   4    5.12    1.55
  -1  -5   4    4.94    2.27
  -1  -5   4    2.99    0.92
  -1  -5   4    3.14    0.99
  -1  -5   5   18.01    2.13
  -1  -5   5   13.87    1.75
  -1  -5   5   19.95    1.48
  -1  -5   5   16.22    2.00
  -1  -5   5   16.17    1.92
  -1  -5   6    0.48    0.47
  -1  -5   6   -0.35    0.56
  -1  -5   6    0.50    0.34
  -1  -5   6    0.71    0.70
  -1  -5   7   83.92    5.06
  -1  -5   7   90.21    5.37
  -1  -5   8   41.69    2.67
  -1  -4 -12   10.58    1.46
  -1  -4 -11    1.67    1.74
  -1  -4 -11    2.63    1.10
  -1  -4 -11    3.46    1.12
  -1  -4 -10   20.47    3.99
  -1  -4 -10   18.44    4.79
  -1  -4 -10   17.20    4.16
  -1  -4 -10   24.50    4.19
  -1  -4 -10   20.03    2.51
  -1  -4 -10   21.91    2.55
  -1  -4  -9   55.15    7.71
  -1  -4  -9   60.69    6.84
  -1  -4  -9   57.66    6.62
  -1  -4  -9   70.62    8.10
  -1  -4  -9   48.09    6.78
  -1  -4  -9   52.68    7.70
  -1  -4  -8  257.41   19.12
  -1  -4  -8  263.13   19.61
  -1  -4  -8  258.42   17.97
  -1  -4  -8  250.99   17.83
  -1  -4  -8  259.28   15.96
  -1  -4  -8  285.05   20.05
  -1  -4  -8  235.00   17.89
  -1  -4  -7   22.60    3.94
  -1  -4  -7   14.09    2.72
  -1  -4  -7   19.25    3.29
  -1  -4  -7   23.15    4.29
  -1  -4  -7   21.38    3.41
  -1  -4  -7   17.77    2.24
  -1  -4  -7   13.54    3.56
  -1  -4  -7   21.74    3.65
  -1  -4  -6  267.07   20.40
  -1  -4  -6  341.61   21.38
  -1  -4  -6  337.11   22.67
  -1  -4  -6  321.69   21.41
  -1  -4  -6  360.70   20.29
  -1  -4  -6  359.70   21.68
  -1  -4  -6  348.43   19.93
  -1  -4  -6  377.26   23.27
  -1  -4  -6  425.98   24.36
  -1  -4  -6  359.83   22.16
  -1  -4  -5  253.56   16.89
  -1  -4  -5  259.57   15.52
  -1  -4  -5  248.72   14.48
  -1  -4  -5  259.13   16.59
  -1  -4  -5  223.64   15.81
  -1  -4  -5  271.38   16.72
  -1  -4  -5  261.78   15.46
  -1  -4  -5  291.33   17.91
  -1  -4  -5  270.96   14.77
  -1  -4  -5  222.13   15.87
  -1  -4  -5  317.63   18.66
  -1  -4  -5  263.77   15.10
  -1  -4  -5  271.69   16.71
  -1  -4  -4   42.99    3.99
  -1  -4  -4   33.91    2.55
  -1  -4  -4   27.29    3.36
  -1  -4  -4   28.88    3.24
  -1  -4  -4   30.73    3.53
  -1  -4  -4   33.21    4.29
  -1  -4  -4   25.51    3.10
  -1  -4  -4   34.24    4.22
  -1  -4  -4   31.65    3.72
  -1  -4  -4   40.13    3.24
  -1  -4  -3 1426.53   75.10
  -1  -4  -3 1257.89   76.50
  -1  -4  -3 1482.17   76.85
  -1  -4  -3 1409.04   76.46
  -1  -4  -3 1180.33   77.10
  -1  -4  -3 1249.95   76.49
  -1  -4  -3 1431.78   76.44
  -1  -4  -3 1362.89   77.41
  -1  -4  -3 1520.38   76.25
  -1  -4  -3 1171.57   77.06
  -1  -4  -2   -0.19    0.92
  -1  -4  -2    0.42    0.92
  -1  -4  -2   -0.29    1.28
  -1  -4  -2   -0.19    1.03
  -1  -4  -2    0.31    1.21
  -1  -4  -2    2.40    1.01
  -1  -4  -2    0.42    0.79
  -1  -4  -2    0.62    1.08
  -1  -4  -1  106.94    8.23
  -1  -4  -1  141.27    9.44
  -1  -4  -1   90.65    7.68
  -1  -4  -1  133.06    8.54
  -1  -4  -1  101.83    7.49
  -1  -4  -1  108.46    8.15
  -1  -4  -1  133.10    9.65
  -1  -4  -1  125.25    8.41
  -1  -4   0   48.31    4.47
  -1  -4   0   46.30    4.49
  -1  -4   0   52.99    5.60
  -1  -4   0   50.21    4.33
  -1  -4   0   49.30    4.08
  -1  -4   0   57.98    4.62
  -1  -4   0   49.27    4.36
  -1  -4   0   45.76    3.62
  -1  -4   0   44.53    3.61
  -1  -4   0   41.85    3.82
  -1  -4   0   51.38    5.14
  -1  -4   0   51.86    4.44
  -1  -4   1   12.09    1.29
  -1  -4   1   13.88    2.61
  -1  -4   1   10.93    1.27
  -1  -4   1    7.59    1.66
  -1  -4   1   10.17    2.13
  -1  -4   1   13.54    1.32
  -1  -4   1   12.02    1.28
  -1  -4   1   11.60    1.12
  -1  -4   1   12.01    2.07
  -1  -4   2  108.75    9.12
  -1  -4   2   87.10    8.31
  -1  -4   2  105.78    8.06
  -1  -4   2  114.40    6.63
  -1  -4   2  104.04    6.71
  -1  -4   2  116.35    6.82
  -1  -4   2  105.88    8.16
  -1  -4   3    1.13    1.23
  -1  -4   3   -0.60    0.98
  -1  -4   3    0.27    0.88
  -1  -4   3    0.21    0.65
  -1  -4   3    0.36    0.62
  -1  -4   3   -0.08    0.51
  -1  -4   4   92.17    5.57
  -1  -4   4   70.31    5.19
  -1  -4   4   78.04    5.94
  -1  -4   4   83.52    5.54
  -1  -4   4   85.70    5.38
  -1  -4   5  385.80   24.00
  -1  -4   5  440.15   24.32
  -1  -4   5  451.68   24.21
  -1  -4   6  159.06    9.48
  -1  -4   6  168.05   10.41
  -1  -4   6  170.55    9.74
  -1  -4   6  174.72    9.91
  -1  -4   6  162.76   10.47
  -1  -4   6  148.36    9.93
  -1  -4   7  131.17    7.53
  -1  -4   7  133.20    7.84
  -1  -4   7  122.16    8.23
  -1  -4   7  123.59    7.56
  -1  -4   8   -0.06    0.43
  -1  -4   8    0.09    0.32
  -1  -4   9    0.21    0.30
  -1  -4   9    0.34    0.21
  -1  -3 -12   12.46    1.71
  -1  -3 -11   32.02    5.69
  -1  -3 -11   28.90    2.80
  -1  -3 -11   26.98    2.64
  -1  -3 -11   28.79    2.85
  -1  -3 -10    8.92    1.62
  -1  -3 -10   10.04    2.99
  -1  -3 -10   10.71    2.95
  -1  -3 -10   10.70    2.06
  -1  -3 -10   12.14    3.07
  -1  -3  -9   47.06    6.37
  -1  -3  -9   41.52    6.27
  -1  -3  -9   40.57    5.33
  -1  -3  -9   35.44    5.15
  -1  -3  -9   41.50    4.18
  -1  -3  -8  513.80   29.69
  -1  -3  -8  504.50   33.05
  -1  -3  -8  511.75   32.73
  -1  -3  -8  535.71   33.61
  -1  -3  -8  514.94   31.83
  -1  -3  -8  510.55   30.12
  -1  -3  -8  531.55   31.91
  -1  -3  -7  143.47    9.21
  -1  -3  -7  122.55    9.90
  -1  -3  -7  137.61   11.22
  -1  -3  -7  130.97    8.45
  -1  -3  -7  122.54   10.65
  -1  -3  -7  128.94   10.20
  -1  -3  -7  131.44   10.07
  -1  -3  -7  130.62    8.76
  -1  -3  -6  136.61   10.45
  -1  -3  -6  160.44    9.90
  -1  -3  -6  153.03   11.70
  -1  -3  -6  153.94    9.24
  -1  -3  -6  139.69   10.22
  -1  -3  -6  160.73   11.06
  -1  -3  -6  148.17   10.60
  -1  -3  -6  147.86    9.48
  -1  -3  -5    8.06    1.49
  -1  -3  -5    5.57    1.54
  -1  -3  -5    6.53    1.20
  -1  -3  -5    8.27    2.21
  -1  -3  -5    5.72    1.49
  -1  -3  -5    7.05    1.33
  -1  -3  -5    6.90    1.04
  -1  -3  -5    6.94    1.71
  -1  -3  -5    6.84    1.61
  -1  -3  -5    8.83    1.21
  -1  -3  -4   85.27    6.46
  -1  -3  -4  101.57    6.34
  -1  -3  -4   84.70    6.70
  -1  -3  -4   97.41    7.58
  -1  -3  -4   91.27    6.82
  -1  -3  -4   93.56    6.55
  -1  -3  -4   96.55    6.19
  -1  -3  -4  100.89    7.20
  -1  -3  -4   94.81    6.83
  -1  -3  -4  102.66    6.06
  -1  -3  -3  564.34   34.94
  -1  -3  -3  618.06   34.64
  -1  -3  -3  639.22   35.29
  -1  -3  -3  687.91   35.88
  -1  -3  -3  599.68   35.26
  -1  -3  -3  605.92   35.03
  -1  -3  -3  657.13   35.57
  -1  -3  -3  628.26   34.79
  -1  -3  -3  629.32   35.27
  -1  -3  -3  615.72   34.33
  -1  -3  -2  124.46    7.20
  -1  -3  -2   94.43    7.04
  -1  -3  -2  104.08    7.38
  -1  -3  -2   99.22    6.91
  -1  -3  -2  112.76    7.19
  -1  -3  -2  112.31    7.33
  -1  -3  -2  110.01    6.86
  -1  -3  -2   86.51    7.21
  -1  -3  -2  105.41    6.22
  -1  -3  -2   95.66    7.03
  -1  -3  -1  121.09    8.06
  -1  -3  -1  124.57    8.07
  -1  -3  -1  136.45    8.91
  -1  -3  -1  110.77    7.37
  -1  -3  -1  122.00    7.98
  -1  -3  -1  119.87    7.82
  -1  -3  -1  123.71    8.05
  -1  -3   0  762.23   43.56
  -1  -3   0  761.32   43.11
  -1  -3   0  829.03   43.83
  -1  -3   0  765.04   43.67
  -1  -3   0  793.63   43.79
  -1  -3   0  839.70   43.83
  -1  -3   0  736.75   42.84
  -1  -3   0  756.93   42.86
  -1  -3   0  751.39   43.45
  -1  -3   0  753.19   43.24
  -1  -3   0  969.61   45.37
  -1  -3   1  217.42   12.16
  -1  -3   1  215.53   14.06
  -1  -3   1  228.29   13.11
  -1  -3   1  226.82   13.62
  -1  -3   1  234.58   12.10
  -1  -3   1  201.91   11.80
  -1  -3   1  224.21   13.32
  -1  -3   1  201.77   11.81
  -1  -3   1  207.77   13.22
  -1  -3   1  219.80   13.18
  -1  -3   2    0.32    0.30
  -1  -3   2   -0.37    1.20
  -1  -3   2    0.38    0.86
  -1  -3   2    0.25    0.88
  -1  -3   2    0.48    0.41
  -1  -3   2    0.87    1.04
  -1  -3   3    2.87    0.63
  -1  -3   3    2.03    1.28
  -1  -3   3    1.68    1.00
  -1  -3   3    0.39    0.87
  -1  -3   3    3.43    0.79
  -1  -3   3    2.72    0.66
  -1  -3   4   16.21    1.80
  -1  -3   4   18.61    1.70
  -1  -3   5   53.84    3.86
  -1  -3   5   44.00    3.51
  -1  -3   5   49.12    3.69
  -1  -3   6  243.43   14.45
  -1  -3   6  253.83   13.90
  -1  -3   6  252.20   14.69
  -1  -3   6  250.11   13.99
  -1  -3   6  192.89   13.96
  -1  -3   6  242.87   13.67
  -1  -3   6  249.41   14.34
  -1  -3   7   94.68    5.56
  -1  -3   7   85.95    5.58
  -1  -3   7   81.53    6.13
  -1  -3   7   92.19    5.78
  -1  -3   8    9.75    1.03
  -1  -3   8    8.38    0.97
  -1  -3   8    9.04    1.11
  -1  -3   9   11.22    1.11
  -1  -3   9   12.20    1.05
  -1  -3  10    0.17    0.19
  -1  -3  10    0.37    0.20
  -1  -2 -12    0.10    0.59
  -1  -2 -12   -0.72    0.96
  -1  -2 -11    3.93    2.56
  -1  -2 -11    5.62    1.16
  -1  -2 -10   39.26    5.25
  -1  -2 -10   37.41    6.51
  -1  -2 -10   34.04    3.28
  -1  -2 -10   35.24    3.23
  -1  -2 -10   38.59    3.50
  -1  -2 -10   40.07    5.33
  -1  -2 -10   42.59    4.33
  -1  -2  -9  185.90   11.94
  -1  -2  -9  158.25   14.54
  -1  -2  -9  207.19   12.75
  -1  -2  -9  177.58   15.57
  -1  -2  -9  201.50   14.56
  -1  -2  -9  212.38   13.21
  -1  -2  -9  197.38   14.59
  -1  -2  -8   -0.51    1.50
  -1  -2  -8    0.38    0.68
  -1  -2  -8    0.54    2.01
  -1  -2  -8    0.89    0.80
  -1  -2  -8    0.27    0.62
  -1  -2  -7    7.90    1.47
  -1  -2  -7    9.59    1.74
  -1  -2  -7   10.60    2.65
  -1  -2  -7    7.45    2.13
  -1  -2  -7    8.40    1.40
  -1  -2  -6   47.40    3.94
  -1  -2  -6   42.47    3.60
  -1  -2  -6   45.11    3.19
  -1  -2  -6   45.97    4.53
  -1  -2  -6   42.72    3.40
  -1  -2  -6   44.19    4.94
  -1  -2  -5   24.20    2.39
  -1  -2  -5   25.47    2.10
  -1  -2  -5   19.37    3.00
  -1  -2  -5   23.76    2.57
  -1  -2  -5   22.03    2.14
  -1  -2  -5   23.51    1.84
  -1  -2  -5   27.08    2.99
  -1  -2  -4  305.76   20.12
  -1  -2  -4  350.90   19.25
  -1  -2  -4  351.17   19.66
  -1  -2  -4  303.20   20.10
  -1  -2  -4  381.47   20.00
  -1  -2  -4  351.59   20.96
  -1  -2  -4  358.22   19.49
  -1  -2  -4  359.53   20.28
  -1  -2  -4  316.28   19.91
  -1  -2  -4  351.88   19.41
  -1  -2  -4  360.37   20.69
  -1  -2  -3   81.94    4.93
  -1  -2  -3   71.33    5.13
  -1  -2  -3   83.87    5.53
  -1  -2  -3   75.12    4.70
  -1  -2  -3   76.77    5.58
  -1  -2  -3   71.77    5.03
  -1  -2  -3   73.16    5.13
  -1  -2  -3   73.68    4.32
  -1  -2  -3   70.20    4.64
  -1  -2  -2   -0.07    0.38
  -1  -2  -2   -0.08    0.50
  -1  -2  -2    0.48    0.71
  -1  -2  -2    0.30    0.64
  -1  -2  -2    0.05    0.33
  -1  -2  -2    1.55    1.44
  -1  -2  -1    6.16    1.01
  -1  -2  -1    4.04    1.18
  -1  -2  -1    4.56    0.87
  -1  -2  -1    5.50    0.67
  -1  -2   0   61.38    4.10
  -1  -2   0   62.29    4.35
  -1  -2   0   59.63    4.16
  -1  -2   0   72.37    5.07
  -1  -2   0   61.39    3.80
  -1  -2   1   69.93    4.16
  -1  -2   1   75.39    4.42
  -1  -2   1   72.20    4.93
  -1  -2   1   65.20    4.93
  -1  -2   1   64.44    4.93
  -1  -2   1   76.87    5.31
  -1  -2   1   67.79    4.84
  -1  -2   2   10.38    1.11
  -1  -2   2   10.28    1.74
  -1  -2   2    7.97    1.38
  -1  -2   2   10.55    1.56
  -1  -2   3   36.37    3.98
  -1  -2   3   32.10    2.54
  -1  -2   3   27.62    3.27
  -1  -2   4   77.56    5.75
  -1  -2   4   90.70    5.58
  -1  -2   4   89.97    5.53
  -1  -2   4   88.28    5.49
  -1  -2   5   15.85    1.72
  -1  -2   5   16.44    1.70
  -1  -2   6    2.88    0.72
  -1  -2   6    2.49    0.83
  -1  -2   6    2.56    0.69
  -1  -2   6    2.41    0.58
  -1  -2   6    2.13    0.83
  -1  -2   6    5.31    1.08
  -1  -2   7  149.49    8.58
  -1  -2   7  136.72    9.13
  -1  -2   7  138.09    8.61
  -1  -2   7  152.59    8.79
  -1  -2   8    6.61    0.92
  -1  -2   8    7.76    1.07
  -1  -2   8    7.03    0.93
  -1  -2   9    1.08    0.52
  -1  -2   9    0.59    0.47
  -1  -2  10    9.93    0.88
  -1  -2  10    8.06    0.84
  -1  -2  11    2.50    0.27
  -1  -1 -12   -0.33    0.62
  -1  -1 -11   32.59    5.28
  -1  -1 -11   38.03    6.15
  -1  -1 -11   41.86    3.43
  -1  -1 -10    3.73    1.94
  -1  -1 -10    1.45    2.00
  -1  -1 -10    4.45    1.29
  -1  -1 -10    1.41    0.81
  -1  -1 -10    1.86    1.46
  -1  -1 -10    4.24    1.41
  -1  -1  -9   37.38    4.21
  -1  -1  -9   37.79    3.92
  -1  -1  -9   32.94    5.99
  -1  -1  -9   31.74    3.52
  -1  -1  -9   31.22    3.01
  -1  -1  -9   28.48    2.85
  -1  -1  -9   32.78    3.15
  -1  -1  -8   58.22    5.40
  -1  -1  -8   53.60    4.88
  -1  -1  -8   54.43    4.40
  -1  -1  -8   53.35    4.66
  -1  -1  -8   47.52    4.11
  -1  -1  -8   59.10    4.28
  -1  -1  -7  227.15   13.73
  -1  -1  -7  201.64   13.11
  -1  -1  -7  225.66   12.81
  -1  -1  -7  194.20   14.92
  -1  -1  -7  197.15   12.89
  -1  -1  -7  201.47   12.45
  -1  -1  -6   10.81    1.63
  -1  -1  -6   14.76    1.63
  -1  -1  -6   14.51    2.00
  -1  -1  -6   15.52    2.82
  -1  -1  -6   13.51    1.67
  -1  -1  -5    4.11    1.03
  -1  -1  -5    4.65    1.56
  -1  -1  -5    5.91    0.95
  -1  -1  -5    4.87    0.83
  -1  -1  -5    5.29    0.95
  -1  -1  -5    4.06    0.56
  -1  -1  -4    4.84    0.74
  -1  -1  -4    5.57    0.88
  -1  -1  -4    4.62    0.99
  -1  -1  -4    5.81    0.82
  -1  -1  -4    5.75    0.58
  -1  -1  -4    3.92    1.16
  -1  -1  -4    5.94    1.33
  -1  -1  -3    3.41    0.61
  -1  -1  -3    4.78    0.80
  -1  -1  -3    2.80    0.36
  -1  -1  -3    3.52    0.63
  -1  -1  -3    3.82    0.57
  -1  -1  -2  226.49   12.27
  -1  -1  -2  207.40   12.43
  -1  -1  -2  193.28   12.40
  -1  -1  -2  218.55   12.10
  -1  -1  -2  216.83   11.95
  -1  -1  -1   33.75    2.48
  -1  -1  -1   37.56    2.30
  -1  -1  -1   36.56    2.19
  -1  -1  -1   38.91    2.66
  -1  -1   0  509.18   26.28
  -1  -1   0  425.29   26.11
  -1  -1   0  435.54   25.69
  -1  -1   1  379.61   21.05
  -1  -1   1  331.45   20.89
  -1  -1   1  335.77   20.69
  -1  -1   1  399.80   20.45
  -1  -1   2  266.80   17.46
  -1  -1   2  300.84   16.91
  -1  -1   3  682.80   35.57
  -1  -1   3  584.60   35.73
  -1  -1   4   12.85    1.52
  -1  -1   4   10.65    1.28
  -1  -1   4   11.03    1.18
  -1  -1   4    9.88    1.10
  -1  -1   5  143.81    9.73
  -1  -1   5  178.18    9.71
  -1  -1   5  161.81    9.55
  -1  -1   6    0.49    0.85
  -1  -1   6    0.28    0.44
  -1  -1   6    0.27    0.58
  -1  -1   6    0.57    0.40
  -1  -1   6    0.10    0.57
  -1  -1   6    0.10    0.54
  -1  -1   7  223.41   13.39
  -1  -1   7  222.38   12.98
  -1  -1   7  229.44   13.05
  -1  -1   8   79.27    5.07
  -1  -1   8   80.65    5.15
  -1  -1   9  227.75   12.88
  -1  -1   9  212.10   12.74
  -1  -1   9  234.03   12.96
  -1  -1  10    0.05    0.34
  -1  -1  11   13.29    0.95
  -1   0 -11   58.86    7.54
  -1   0 -11   71.65    5.14
  -1   0 -10  173.06   11.35
  -1   0 -10  165.42   15.22
  -1   0 -10  157.37   14.04
  -1   0 -10  160.03   10.38
  -1   0  -9   30.63    3.06
  -1   0  -9   29.29    3.43
  -1   0  -9   20.86    2.74
  -1   0  -9   26.01    3.16
  -1   0  -9   24.10    5.19
  -1   0  -9   21.79    2.45
  -1   0  -9   28.65    3.80
  -1   0  -8   16.10    2.44
  -1   0  -8   21.11    2.54
  -1   0  -8   18.12    2.19
  -1   0  -8   21.66    4.77
  -1   0  -8   19.65    2.64
  -1   0  -8   22.07    3.09
  -1   0  -7    0.45    0.90
  -1   0  -7    0.52    0.66
  -1   0  -7    0.18    0.62
  -1   0  -7    0.20    0.79
  -1   0  -7    0.26    0.75
  -1   0  -7    0.65    1.52
  -1   0  -7    1.33    0.73
  -1   0  -7    0.38    0.83
  -1   0  -6  194.26   11.29
  -1   0  -6  174.08   11.24
  -1   0  -6  173.02   11.57
  -1   0  -6  182.11   13.41
  -1   0  -6  202.23   11.25
  -1   0  -6  198.81   12.31
  -1   0  -6  181.90   11.73
  -1   0  -6  197.72   11.71
  -1   0  -5    8.95    1.23
  -1   0  -5   11.21    2.29
  -1   0  -5   11.00    1.45
  -1   0  -5   13.80    1.50
  -1   0  -5    9.44    1.53
  -1   0  -5   12.09    1.25
  -1   0  -4  361.16   22.77
  -1   0  -4  420.66   22.82
  -1   0  -4  393.19   23.08
  -1   0  -4  430.22   22.60
  -1   0  -3  123.85    7.80
  -1   0  -3  147.35    7.87
  -1   0  -3  128.28    8.00
  -1   0  -3  107.17    7.82
  -1   0  -3  149.95    7.71
  -1   0  -2  439.09   24.18
  -1   0  -2  469.54   24.08
  -1   0  -1   40.89    2.41
  -1   0  -1   40.41    2.40
  -1   0  -1   35.25    2.25
  -1   0  -1   34.74    2.20
  -1   0  -1   30.18    2.51
  -1   0  -1   32.14    3.04
  -1   0   0   31.06    1.83
  -1   0   0   28.17    2.01
  -1   0   0   27.95    2.28
  -1   0   0   24.52    1.74
  -1   0   0   31.03    1.83
  -1   0   1  319.87   17.49
  -1   0   1  330.14   17.50
  -1   0   2  165.61    9.48
  -1   0   2  156.14    9.90
  -1   0   3  489.72   27.20
  -1   0   3  483.99   27.38
  -1   0   4    0.36    0.58
  -1   0   5 1465.94   76.22
  -1   0   5 1397.70   76.04
  -1   0   5 1404.02   75.98
  -1   0   5 1202.94   76.73
  -1   0   6    1.79    0.91
  -1   0   6    1.86    0.65
  -1   0   7   20.48    1.56
  -1   0   7   18.56    1.54
  -1   0   7   18.14    1.47
  -1   0   7   17.08    1.59
  -1   0   7   18.14    1.64
  -1   0   7   17.66    2.10
  -1   0   8   10.44    1.12
  -1   0   8    9.77    1.19
  -1   0   8    9.63    1.73
  -1   0   8   10.75    1.20
  -1   0   9    1.33    0.53
  -1   0   9    1.48    0.54
  -1   0   9    0.45    0.58
  -1   0   9    1.83    0.55
  -1   0  10   32.21    2.24
  -1   0  10   29.23    2.19
  -1   0  10   34.81    2.41
  -1   0  10   27.97    2.13
  -1   0  11    0.39    0.29
  -1   0  11    0.71    0.35
  -1   0  12    0.10    0.11
  -1   1 -11    1.40    0.65
  -1   1 -11    0.15    1.02
  -1   1 -10   75.86    6.26
  -1   1 -10   73.70    8.95
  -1   1 -10   84.08    5.97
  -1   1  -9    2.55    1.08
  -1   1  -9    5.21    1.62
  -1   1  -9    0.85    2.18
  -1   1  -9    3.61    1.40
  -1   1  -9    0.66    1.82
  -1   1  -9    4.67    1.27
  -1   1  -8    2.74    1.29
  -1   1  -8    1.80    2.09
  -1   1  -8    2.97    2.32
  -1   1  -8    2.21    1.14
  -1   1  -8    1.85    1.09
  -1   1  -8    1.19    0.96
  -1   1  -7    8.99    1.66
  -1   1  -7    7.96    1.64
  -1   1  -7    9.95    3.49
  -1   1  -7    8.01    1.41
  -1   1  -7    8.87    1.65
  -1   1  -7    9.76    1.48
  -1   1  -7    8.21    1.89
  -1   1  -6  238.98   15.37
  -1   1  -6  253.12   19.27
  -1   1  -6  240.61   14.98
  -1   1  -6  271.62   15.63
  -1   1  -6  268.84   15.23
  -1   1  -6  261.91   16.22
  -1   1  -5  780.10   44.71
  -1   1  -5  710.11   40.38
  -1   1  -5  699.13   40.49
  -1   1  -5  771.48   41.00
  -1   1  -5  752.98   40.70
  -1   1  -5  712.33   41.30
  -1   1  -4  117.20    9.33
  -1   1  -4  108.55    6.68
  -1   1  -4   93.43    6.83
  -1   1  -4  110.80    6.97
  -1   1  -4  126.03    6.96
  -1   1  -4  103.16    7.16
  -1   1  -3  124.00    7.59
  -1   1  -3  128.16    7.69
  -1   1  -3  124.86    7.61
  -1   1  -3  129.74    7.43
  -1   1  -3  126.33    7.41
  -1   1  -3  119.08    9.36
  -1   1  -2    4.65    0.68
  -1   1  -2    4.48    0.62
  -1   1  -2    4.52    0.62
  -1   1  -2    5.76    0.76
  -1   1  -2    4.91    0.71
  -1   1  -1    0.17    0.25
  -1   1  -1    0.48    0.80
  -1   1  -1   -0.11    0.61
  -1   1  -1    0.58    0.31
  -1   1  -1    0.65    0.32
  -1   1  -1    0.04    0.25
  -1   1   0   24.29    2.33
  -1   1   0   15.42    1.43
  -1   1   0   21.33    1.24
  -1   1   0   16.49    1.29
  -1   1   0   14.97    1.19
  -1   1   1  116.58    6.50
  -1   1   1  106.85    7.29
  -1   1   1  107.75    6.47
  -1   1   1  109.82    6.47
  -1   1   2    0.66    0.80
  -1   1   2    1.52    0.39
  -1   1   2    1.73    0.42
  -1   1   3   72.56    4.19
  -1   1   3   72.01    4.18
  -1   1   4   97.47    6.43
  -1   1   5  155.44   11.09
  -1   1   5  192.08   10.51
  -1   1   6  116.16    7.25
  -1   1   7   58.36    3.82
  -1   1   7   60.68    3.71
  -1   1   7   58.38    3.74
  -1   1   7   55.18    3.84
  -1   1   7   64.72    4.41
  -1   1   8   64.51    4.37
  -1   1   8   70.38    4.35
  -1   1   8   73.86    4.31
  -1   1   8   68.32    4.59
  -1   1   8   68.84    5.01
  -1   1   8   61.70    4.38
  -1   1   9   50.74    3.46
  -1   1   9   53.11    3.44
  -1   1   9   53.44    3.32
  -1   1   9   55.31    3.75
  -1   1   9   53.14    4.13
  -1   1   9   43.56    3.41
  -1   1  10    1.85    0.53
  -1   1  10    1.24    0.50
  -1   1  10    1.88    0.66
  -1   1  10    1.92    0.56
  -1   1  11    3.92    0.57
  -1   1  11    5.35    0.65
  -1   1  12   19.70    1.28
  -1   2 -11    0.10    0.18
  -1   2 -10    5.10    1.57
  -1   2 -10    4.73    1.05
  -1   2 -10    4.54    1.63
  -1   2  -9   14.86    2.72
  -1   2  -9    9.48    1.91
  -1   2  -9   13.36    3.98
  -1   2  -9   14.13    2.23
  -1   2  -8   38.62    3.58
  -1   2  -8   52.80    8.05
  -1   2  -8   42.67    4.31
  -1   2  -8   38.05    4.72
  -1   2  -8   50.83    4.49
  -1   2  -8   50.05    4.67
  -1   2  -8   45.45    4.40
  -1   2  -7   19.08    2.54
  -1   2  -7   14.89    2.39
  -1   2  -7   13.34    2.00
  -1   2  -7   18.61    4.86
  -1   2  -7   13.71    3.80
  -1   2  -7   15.09    2.65
  -1   2  -7   19.29    2.74
  -1   2  -7   17.03    2.22
  -1   2  -6   10.34    1.82
  -1   2  -6    9.13    1.73
  -1   2  -6   10.15    1.68
  -1   2  -6    7.14    3.44
  -1   2  -6    9.58    3.09
  -1   2  -6    8.80    1.87
  -1   2  -6   10.71    2.09
  -1   2  -6   12.83    1.78
  -1   2  -5    8.02    1.36
  -1   2  -5    9.20    3.37
  -1   2  -5    8.13    2.61
  -1   2  -5    6.18    1.47
  -1   2  -5    7.51    1.39
  -1   2  -5   10.69    1.61
  -1   2  -5    7.08    1.33
  -1   2  -4   10.63    1.39
  -1   2  -4    9.15    1.35
  -1   2  -4   12.28    1.52
  -1   2  -4   11.93    3.27
  -1   2  -4    7.80    2.35
  -1   2  -4    8.08    1.36
  -1   2  -4    9.31    1.33
  -1   2  -3  380.46   21.32
  -1   2  -3  391.36   22.00
  -1   2  -3  397.75   21.35
  -1   2  -3  377.25   20.99
  -1   2  -3  371.08   20.97
  -1   2  -3  373.97   24.10
  -1   2  -3  350.74   23.30
  -1   2  -3  356.25   20.69
  -1   2  -2  141.71    8.41
  -1   2  -2  148.02    8.42
  -1   2  -2  130.18    8.60
  -1   2  -2  141.11    8.21
  -1   2  -2  132.95    8.18
  -1   2  -2  132.79   10.20
  -1   2  -2  138.97    8.04
  -1   2  -1   60.30    3.94
  -1   2  -1   62.79    3.91
  -1   2  -1   53.86    3.60
  -1   2  -1   61.06    3.76
  -1   2  -1   64.85    3.94
  -1   2  -1   59.33    4.09
  -1   2  -1   60.35    3.84
  -1   2  -1   57.38    3.82
  -1   2   0 1040.90   53.64
  -1   2   0  936.56   53.28
  -1   2   0 1012.95   53.74
  -1   2   0  983.12   53.72
  -1   2   0 1003.80   53.69
  -1   2   0  979.23   53.28
  -1   2   1   35.23    2.34
  -1   2   1   30.63    2.13
  -1   2   1   33.54    2.15
  -1   2   1   31.72    2.30
  -1   2   2  451.58   26.33
  -1   2   2  493.57   26.45
  -1   2   2  480.41   26.44
  -1   2   3    7.48    1.12
  -1   2   3    8.88    1.02
  -1   2   3   10.94    1.08
  -1   2   4  238.11   15.85
  -1   2   4  283.88   15.51
  -1   2   4  282.44   15.50
  -1   2   5  329.88   18.88
  -1   2   5  344.06   18.90
  -1   2   6   59.26    4.06
  -1   2   7   47.26    3.51
  -1   2   7   42.36    3.08
  -1   2   7   44.63    3.03
  -1   2   7   44.48    2.96
  -1   2   7   48.54    3.29
  -1   2   8   46.07    3.47
  -1   2   8   36.11    2.87
  -1   2   8   38.02    2.80
  -1   2   8   42.29    2.82
  -1   2   8   41.10    2.78
  -1   2   8   38.36    2.67
  -1   2   8   43.58    3.12
  -1   2   9    2.03    0.98
  -1   2   9    0.86    0.59
  -1   2   9    1.30    0.53
  -1   2   9    1.59    0.51
  -1   2   9    1.47    0.45
  -1   2   9    1.43    0.52
  -1   2   9    0.78    0.65
  -1   2  10    6.19    1.36
  -1   2  10    7.73    0.95
  -1   2  10    8.53    0.92
  -1   2  10    7.51    1.13
  -1   2  10    8.92    0.97
  -1   2  11    8.29    0.83
  -1   2  11    8.57    0.88
  -1   2  12    0.30    0.23
  -1   3 -10    1.23    0.87
  -1   3 -10    2.17    1.03
  -1   3  -9   -0.22    0.76
  -1   3  -9    0.20    1.37
  -1   3  -9   -0.87    1.65
  -1   3  -8    9.74    2.01
  -1   3  -8    8.13    1.71
  -1   3  -8   10.34    2.51
  -1   3  -8   10.31    1.94
  -1   3  -8   12.20    2.06
  -1   3  -7   52.23    4.90
  -1   3  -7   62.66    5.24
  -1   3  -7   43.82    7.70
  -1   3  -7   62.90    5.25
  -1   3  -7   40.23    5.03
  -1   3  -7   71.61    6.00
  -1   3  -7   53.44    4.78
  -1   3  -7   47.38    4.56
  -1   3  -6    1.90    1.06
  -1   3  -6    4.44    1.23
  -1   3  -6    2.76    0.99
  -1   3  -6    5.83    3.12
  -1   3  -6    3.64    1.24
  -1   3  -6    1.87    0.98
  -1   3  -6    4.02    1.48
  -1   3  -6    2.52    0.96
  -1   3  -5   21.06    2.43
  -1   3  -5   24.48    2.70
  -1   3  -5   19.40    2.11
  -1   3  -5   13.11    3.93
  -1   3  -5   17.56    2.32
  -1   3  -5   16.78    2.59
  -1   3  -5   22.57    2.73
  -1   3  -5   20.27    2.41
  -1   3  -4  203.78   13.47
  -1   3  -4  209.44   13.21
  -1   3  -4  235.89   13.90
  -1   3  -4  245.55   13.88
  -1   3  -4  235.69   17.59
  -1   3  -4  243.33   13.88
  -1   3  -3    8.61    1.21
  -1   3  -3    9.25    1.25
  -1   3  -3   11.22    1.57
  -1   3  -3    7.22    1.19
  -1   3  -3   11.18    1.18
  -1   3  -3   13.47    1.69
  -1   3  -3   12.48    1.97
  -1   3  -3   12.34    1.58
  -1   3  -3   13.88    1.64
  -1   3  -3    9.44    2.74
  -1   3  -2   87.46    6.18
  -1   3  -2  110.12    6.71
  -1   3  -2  105.50    6.31
  -1   3  -2  113.59    6.83
  -1   3  -2  116.77    6.75
  -1   3  -2  103.12    6.46
  -1   3  -2   97.51    6.41
  -1   3  -2   79.59    8.08
  -1   3  -1   61.93    5.21
  -1   3  -1   66.54    4.17
  -1   3  -1   71.83    4.46
  -1   3  -1   67.85    4.28
  -1   3  -1   65.08    4.25
  -1   3  -1   53.05    3.92
  -1   3  -1   54.63    3.79
  -1   3  -1   66.41    4.26
  -1   3   0  602.80   31.06
  -1   3   0  503.03   30.24
  -1   3   0  601.79   30.84
  -1   3   0  602.51   31.07
  -1   3   0  577.60   31.02
  -1   3   0  592.76   30.97
  -1   3   0  635.27   31.88
  -1   3   1  719.76   40.94
  -1   3   1  744.59   41.06
  -1   3   1  774.20   41.10
  -1   3   1  717.69   40.64
  -1   3   1  712.11   40.98
  -1   3   1  792.88   41.07
  -1   3   2  232.33   13.97
  -1   3   2  241.59   14.00
  -1   3   2  250.48   13.77
  -1   3   2  230.79   13.71
  -1   3   3    3.25    0.71
  -1   3   3    3.16    0.74
  -1   3   4  800.23   47.34
  -1   3   4  807.03   47.34
  -1   3   4  942.34   47.24
  -1   3   5   64.85    4.66
  -1   3   5   66.40    4.68
  -1   3   5   77.13    4.77
  -1   3   6    2.30    0.73
  -1   3   7   28.78    2.10
  -1   3   7   25.83    1.97
  -1   3   7   31.16    2.35
  -1   3   7   26.92    2.19
  -1   3   7   30.49    2.50
  -1   3   7   25.92    2.04
  -1   3   8   36.15    2.48
  -1   3   8   31.23    2.33
  -1   3   8   35.08    2.35
  -1   3   8   38.06    2.80
  -1   3   8   35.21    2.48
  -1   3   8   38.56    3.01
  -1   3   8   30.95    2.54
  -1   3   8   27.72    2.36
  -1   3   9   73.76    4.39
  -1   3   9   68.72    4.33
  -1   3   9   55.38    4.41
  -1   3   9   79.94    4.82
  -1   3   9   67.59    4.28
  -1   3   9   73.80    4.44
  -1   3   9   73.18    5.03
  -1   3   9   64.49    4.36
  -1   3  10   75.66    4.43
  -1   3  10   73.05    4.50
  -1   3  10   80.99    4.94
  -1   3  10   79.20    4.60
  -1   3  10   66.70    5.05
  -1   3  10   62.53    4.46
  -1   3  11   13.93    1.15
  -1   3  12    0.80    0.47
  -1   4 -10   16.25    1.04
  -1   4  -9    7.23    1.44
  -1   4  -9    6.70    1.31
  -1   4  -9    4.88    1.39
  -1   4  -8   74.11    4.34
  -1   4  -8   67.96    7.80
  -1   4  -8   79.50    5.99
  -1   4  -8   64.17    5.67
  -1   4  -8   69.22    5.98
  -1   4  -7   65.47    5.80
  -1   4  -7   58.15    5.23
  -1   4  -7   60.89    7.83
  -1   4  -7   63.60    5.42
  -1   4  -7   49.53    4.85
  -1   4  -7   62.78    5.60
  -1   4  -6  428.07   26.39
  -1   4  -6  426.23   26.63
  -1   4  -6  463.08   26.14
  -1   4  -6  401.15   26.66
  -1   4  -6  424.16   29.91
  -1   4  -6  490.66   26.30
  -1   4  -6  407.48   25.72
  -1   4  -5   11.38    1.97
  -1   4  -5   12.25    2.63
  -1   4  -5   15.33    2.23
  -1   4  -5   10.24    3.65
  -1   4  -5   16.05    2.22
  -1   4  -5    9.96    2.65
  -1   4  -5   13.43    2.00
  -1   4  -5   13.34    2.30
  -1   4  -4    0.97    0.95
  -1   4  -4    0.23    1.55
  -1   4  -4   -1.47    1.98
  -1   4  -4   -0.21    0.59
  -1   4  -4    0.62    0.80
  -1   4  -4   -0.54    2.25
  -1   4  -4    0.16    0.61
  -1   4  -4    0.44    0.72
  -1   4  -4    1.24    0.76
  -1   4  -3   88.55    6.24
  -1   4  -3   99.73    6.79
  -1   4  -3   80.47    6.58
  -1   4  -3   85.91    6.80
  -1   4  -3  105.66    6.78
  -1   4  -3   89.56    8.46
  -1   4  -3   92.91    6.00
  -1   4  -3   88.59    6.18
  -1   4  -3   87.64    6.17
  -1   4  -3   82.10    5.98
  -1   4  -3  103.77    6.79
  -1   4  -2   83.71    5.42
  -1   4  -2   75.41    7.09
  -1   4  -2   63.19    5.55
  -1   4  -2   65.80    5.03
  -1   4  -2   87.21    5.76
  -1   4  -2   71.04    5.76
  -1   4  -2   94.59    5.13
  -1   4  -2   87.70    5.93
  -1   4  -2   81.63    5.55
  -1   4  -2   86.12    5.61
  -1   4  -2   74.86    5.33
  -1   4  -1   -0.08    0.36
  -1   4  -1    0.28    1.12
  -1   4  -1    1.13    0.99
  -1   4  -1    0.13    0.95
  -1   4  -1    0.41    0.80
  -1   4  -1    1.38    1.25
  -1   4  -1    0.45    0.51
  -1   4  -1   -0.13    0.42
  -1   4  -1    0.13    0.44
  -1   4  -1    0.12    0.25
  -1   4  -1    0.59    0.58
  -1   4  -1    0.70    0.67
  -1   4  -1   -0.44    0.57
  -1   4   0  293.51   17.03
  -1   4   0  282.04   16.85
  -1   4   0  282.07   17.29
  -1   4   0  294.94   17.13
  -1   4   0  312.37   17.27
  -1   4   0  309.24   17.24
  -1   4   0  294.22   17.20
  -1   4   0  282.91   18.10
  -1   4   1    1.06    0.59
  -1   4   1    2.35    0.73
  -1   4   1    1.72    0.68
  -1   4   1    1.95    0.69
  -1   4   1    1.34    0.63
  -1   4   1    1.51    0.47
  -1   4   2  244.34   16.21
  -1   4   2  272.81   16.65
  -1   4   2  281.52   16.60
  -1   4   2  267.96   16.79
  -1   4   3   18.53    2.00
  -1   4   3   16.57    1.93
  -1   4   3   13.80    1.60
  -1   4   3   15.84    1.71
  -1   4   4   66.05    4.90
  -1   4   4   67.57    4.92
  -1   4   4   66.59    4.48
  -1   4   5  139.81    9.19
  -1   4   5  144.72    9.23
  -1   4   5  148.20    8.95
  -1   4   6   43.73    3.25
  -1   4   6   45.80    3.68
  -1   4   6   45.39    3.67
  -1   4   7   24.65    1.85
  -1   4   7   29.35    2.08
  -1   4   7   27.57    2.01
  -1   4   7   25.90    2.28
  -1   4   7   20.76    1.89
  -1   4   8  174.33   10.84
  -1   4   8  195.86   10.89
  -1   4   8  211.28   11.46
  -1   4   8  198.62   11.04
  -1   4   8  208.50   11.11
  -1   4   8  186.05   11.43
  -1   4   8  171.89   10.95
  -1   4   9   74.52    4.60
  -1   4   9   77.19    4.69
  -1   4   9   78.48    4.66
  -1   4   9   69.42    4.48
  -1   4   9   68.75    4.40
  -1   4   9   69.51    5.03
  -1   4  10    9.95    1.09
  -1   4  10    8.55    0.93
  -1   4  10    7.87    0.91
  -1   4  10    9.48    0.96
  -1   4  11   24.98    1.76
  -1   4  11   22.35    1.62
  -1   4  12    5.84    0.76
  -1   5  -8   19.38    2.02
  -1   5  -8   15.21    1.94
  -1   5  -8   17.88    2.20
  -1   5  -8   16.83    1.20
  -1   5  -7  170.66   10.03
  -1   5  -7  158.13   10.06
  -1   5  -7  156.54   10.15
  -1   5  -7  156.62   12.73
  -1   5  -7  141.33    8.58
  -1   5  -7  157.51   10.30
  -1   5  -6  148.96    9.97
  -1   5  -6  135.39   10.01
  -1   5  -6  135.52    9.59
  -1   5  -6  142.27   12.74
  -1   5  -6  133.06    9.64
  -1   5  -6  146.23   12.84
  -1   5  -6  145.76   10.12
  -1   5  -5  103.64   10.88
  -1   5  -5  115.82    8.83
  -1   5  -5  110.39    8.21
  -1   5  -5  108.67    8.95
  -1   5  -5  107.23    8.45
  -1   5  -5  124.67    8.67
  -1   5  -5  128.24    8.86
  -1   5  -4  138.15   12.49
  -1   5  -4  125.55    9.77
  -1   5  -4  137.73   10.09
  -1   5  -4  136.24    9.52
  -1   5  -4  145.80   10.13
  -1   5  -4  136.21   10.38
  -1   5  -4  163.15   10.28
  -1   5  -4  156.67   10.20
  -1   5  -3    8.04    2.91
  -1   5  -3    3.52    1.72
  -1   5  -3    4.85    1.93
  -1   5  -3    5.66    1.73
  -1   5  -3    3.23    0.54
  -1   5  -3    3.15    1.16
  -1   5  -3    4.56    1.38
  -1   5  -3    3.28    1.15
  -1   5  -3    4.59    1.15
  -1   5  -3    7.08    2.74
  -1   5  -2    2.10    1.95
  -1   5  -2    3.49    0.90
  -1   5  -2    2.83    1.05
  -1   5  -2    3.88    1.62
  -1   5  -2    4.87    1.67
  -1   5  -2    5.06    1.48
  -1   5  -2    1.52    0.77
  -1   5  -2    6.23    2.29
  -1   5  -2    3.77    1.08
  -1   5  -2    2.41    0.85
  -1   5  -2    1.91    0.84
  -1   5  -1   92.55    8.02
  -1   5  -1   96.28    6.85
  -1   5  -1   92.53    6.49
  -1   5  -1   98.52    6.03
  -1   5  -1   98.08    6.63
  -1   5  -1   95.74    6.31
  -1   5  -1   91.75    6.55
  -1   5  -1   88.24    6.51
  -1   5  -1   87.04    6.61
  -1   5  -1   95.38    6.50
  -1   5  -1   87.27    6.90
  -1   5  -1   88.57    7.90
  -1   5  -1   84.57    6.31
  -1   5   0    4.62    1.11
  -1   5   0    5.25    1.25
  -1   5   0    5.74    1.38
  -1   5   0    4.61    0.89
  -1   5   0    5.26    0.97
  -1   5   0    4.80    1.10
  -1   5   0    4.30    1.06
  -1   5   0    4.09    1.11
  -1   5   0    2.62    1.34
  -1   5   0    6.16    1.29
  -1   5   0    5.85    1.21
  -1   5   1  199.11   12.42
  -1   5   1  197.35   11.82
  -1   5   1  207.21   12.03
  -1   5   1  209.98   12.66
  -1   5   1  209.75   12.65
  -1   5   1  205.37   12.54
  -1   5   1  231.33   12.86
  -1   5   1  187.94   11.69
  -1   5   2  221.28   13.09
  -1   5   2  244.58   13.77
  -1   5   2  228.12   13.50
  -1   5   2  198.32   12.96
  -1   5   2  251.38   13.95
  -1   5   3   67.42    4.56
  -1   5   3   68.88    4.60
  -1   5   3   64.19    4.89
  -1   5   3   63.69    5.11
  -1   5   3   65.71    5.16
  -1   5   4   15.70    1.77
  -1   5   4   15.04    2.12
  -1   5   4   17.70    2.19
  -1   5   4   17.33    1.86
  -1   5   5   89.39    5.88
  -1   5   5   90.20    5.92
  -1   5   5   82.90    6.34
  -1   5   5   79.57    6.27
  -1   5   6   84.84    5.08
  -1   5   6   80.14    4.99
  -1   5   6   86.70    5.10
  -1   5   6   87.43    5.80
  -1   5   6   81.13    5.04
  -1   5   6   81.12    5.08
  -1   5   6   71.50    5.97
  -1   5   6   63.65    5.78
  -1   5   7  104.13    6.64
  -1   5   7  119.73    6.86
  -1   5   7  118.17    6.94
  -1   5   7  111.82    6.87
  -1   5   7  117.87    6.85
  -1   5   7  124.44    6.94
  -1   5   7  103.09    7.06
  -1   5   8  115.46    7.33
  -1   5   8  133.87    7.64
  -1   5   8  129.78    7.41
  -1   5   8  136.89    7.63
  -1   5   8  117.17    7.82
  -1   5   9   -0.22    0.52
  -1   5   9    0.14    0.32
  -1   5   9    0.10    0.36
  -1   5   9    0.07    0.46
  -1   5   9   -0.15    0.54
  -1   5  10   36.09    2.49
  -1   5  10   37.86    2.61
  -1   5  10   33.99    2.47
  -1   5  11    5.11    0.73
  -1   5  11    6.97    1.05
  -1   5  12    1.00    0.50
  -1   6  -8   14.48    0.80
  -1   6  -8    9.30    0.70
  -1   6  -7   60.67    3.56
  -1   6  -7   58.69    4.19
  -1   6  -7   56.37    4.23
  -1   6  -6    1.74    1.63
  -1   6  -6    1.66    0.47
  -1   6  -6    1.47    1.21
  -1   6  -6    3.87    1.36
  -1   6  -5    1.35    1.59
  -1   6  -5    0.91    1.30
  -1   6  -5    2.11    2.26
  -1   6  -5    0.52    1.52
  -1   6  -5    1.42    0.99
  -1   6  -5   -0.41    1.30
  -1   6  -4   -0.54    1.87
  -1   6  -4    2.86    1.58
  -1   6  -4    3.35    1.26
  -1   6  -4    3.70    1.77
  -1   6  -4    0.71    1.80
  -1   6  -4    1.72    1.43
  -1   6  -4    3.31    2.22
  -1   6  -4    0.96    0.88
  -1   6  -4    0.80    0.93
  -1   6  -4    2.29    1.06
  -1   6  -3    3.85    0.62
  -1   6  -3    2.04    1.92
  -1   6  -3    1.33    1.70
  -1   6  -3    6.06    1.34
  -1   6  -3    2.33    1.55
  -1   6  -3    5.70    1.91
  -1   6  -3    3.77    1.27
  -1   6  -3    5.47    1.70
  -1   6  -3    5.69    1.58
  -1   6  -3    4.16    2.36
  -1   6  -2  109.50   10.15
  -1   6  -2  122.07    9.08
  -1   6  -2  125.95    8.58
  -1   6  -2  136.83    7.99
  -1   6  -2  139.93    8.78
  -1   6  -2  128.63    8.34
  -1   6  -2  115.64    9.12
  -1   6  -2  117.80    7.17
  -1   6  -2  107.63    8.39
  -1   6  -2  111.42    8.43
  -1   6  -2  132.49    9.17
  -1   6  -1   14.45    3.21
  -1   6  -1   18.33    1.52
  -1   6  -1   21.01    2.07
  -1   6  -1   20.47    2.62
  -1   6  -1   17.42    2.19
  -1   6  -1   19.07    2.39
  -1   6  -1   16.54    2.36
  -1   6  -1   19.23    2.49
  -1   6  -1   17.10    2.32
  -1   6  -1   22.83    2.77
  -1   6  -1   20.95    1.63
  -1   6   0   27.94    3.04
  -1   6   0   29.40    2.07
  -1   6   0   28.33    3.09
  -1   6   0   27.74    2.63
  -1   6   0   24.73    2.31
  -1   6   0   26.36    1.97
  -1   6   0   28.33    3.25
  -1   6   0   26.65    3.00
  -1   6   0   27.26    3.02
  -1   6   1   -0.21    0.71
  -1   6   1    0.25    0.68
  -1   6   1   -0.06    0.37
  -1   6   1    0.22    0.63
  -1   6   1    0.22    0.60
  -1   6   1    0.19    0.49
  -1   6   1    0.22    0.62
  -1   6   2  138.10    8.71
  -1   6   2  126.68    8.12
  -1   6   2  117.81    7.99
  -1   6   2  128.90    8.97
  -1   6   2  125.02    8.95
  -1   6   2  137.71    8.97
  -1   6   3   28.19    2.07
  -1   6   3   25.78    2.46
  -1   6   3   25.37    2.85
  -1   6   3   28.10    3.19
  -1   6   3   23.19    2.98
  -1   6   3   27.50    1.99
  -1   6   4  117.60    7.22
  -1   6   4  110.36    6.45
  -1   6   4  106.97    6.39
  -1   6   4  101.01    6.34
  -1   6   4  103.01    6.56
  -1   6   4  100.21    7.80
  -1   6   4  102.13    7.81
  -1   6   4  115.11    7.15
  -1   6   5    0.43    0.90
  -1   6   5    0.20    0.47
  -1   6   5    0.13    0.39
  -1   6   5    0.13    0.46
  -1   6   5    0.18    0.49
  -1   6   5    0.33    0.82
  -1   6   5    0.40    0.41
  -1   6   5    0.24    0.61
  -1   6   5    0.24    0.75
  -1   6   5    0.14    0.79
  -1   6   6   57.11    3.94
  -1   6   6   69.43    4.91
  -1   6   6   64.46    4.10
  -1   6   6   63.87    4.00
  -1   6   6   61.89    4.00
  -1   6   6   60.78    4.22
  -1   6   6   54.24    5.17
  -1   6   6   53.54    5.16
  -1   6   7   45.47    3.15
  -1   6   7   44.64    3.21
  -1   6   7   45.00    3.42
  -1   6   7   43.69    3.08
  -1   6   8  631.18   35.54
  -1   6   8  679.16   35.73
  -1   6   8  663.31   35.89
  -1   6   8  619.12   35.56
  -1   6   8  631.61   35.63
  -1   6   9   71.12    4.57
  -1   6   9   64.00    4.23
  -1   6   9   64.52    4.26
  -1   6  10    3.17    0.62
  -1   6  10    4.22    0.71
  -1   6  11    7.52    0.90
  -1   6  12   15.49    1.13
  -1   6  12   14.25    1.03
  -1   7  -7   23.41    1.41
  -1   7  -6   91.43    6.14
  -1   7  -6  103.55    5.75
  -1   7  -5    2.66    0.94
  -1   7  -5    1.74    0.45
  -1   7  -4    1.36    0.98
  -1   7  -4    0.41    1.28
  -1   7  -3   43.35    2.81
  -1   7  -3   42.64    3.67
  -1   7  -3   34.55    3.10
  -1   7  -3   40.00    2.69
  -1   7  -3   34.70    4.97
  -1   7  -2    1.27    0.75
  -1   7  -2    0.84    0.83
  -1   7  -2    2.74    1.18
  -1   7  -2    0.83    0.89
  -1   7  -2    1.93    0.49
  -1   7  -2    1.35    0.45
  -1   7  -2   -0.28    0.72
  -1   7  -1    2.95    1.22
  -1   7  -1    1.43    0.97
  -1   7  -1    1.26    0.79
  -1   7  -1    1.00    0.82
  -1   7  -1    1.50    0.52
  -1   7  -1    2.93    0.57
  -1   7  -1    2.24    0.86
  -1   7  -1    2.39    0.56
  -1   7   0   -0.25    0.58
  -1   7   0   -0.30    0.76
  -1   7   0   -0.30    0.79
  -1   7   0    0.07    0.38
  -1   7   0   -0.26    0.61
  -1   7   0   -0.26    0.55
  -1   7   0    0.45    0.41
  -1   7   0    0.33    0.38
  -1   7   0   -0.32    0.77
  -1   7   0   -0.19    0.41
  -1   7   1    7.27    1.79
  -1   7   1    7.82    1.01
  -1   7   1   11.43    1.90
  -1   7   1    6.76    1.38
  -1   7   1    7.93    0.92
  -1   7   1    8.50    0.91
  -1   7   1    7.71    1.71
  -1   7   1    7.77    1.81
  -1   7   1    7.85    1.47
  -1   7   1    7.22    0.91
  -1   7   2    9.52    1.76
  -1   7   2   16.61    2.47
  -1   7   2   14.46    1.41
  -1   7   2   12.98    2.28
  -1   7   2    9.40    2.11
  -1   7   2   16.56    1.38
  -1   7   2   13.81    1.33
  -1   7   2   14.15    1.93
  -1   7   3    0.42    0.78
  -1   7   3    0.24    0.45
  -1   7   3   -0.07    0.38
  -1   7   3    0.13    0.38
  -1   7   3   -0.28    0.84
  -1   7   4  207.28   12.26
  -1   7   4  199.14   11.50
  -1   7   4  205.99   12.23
  -1   7   4  207.09   11.43
  -1   7   4  179.94   11.31
  -1   7   4  201.78   11.40
  -1   7   4  195.96   11.41
  -1   7   4  190.87   13.31
  -1   7   4  201.56   13.47
  -1   7   4  195.49   11.37
  -1   7   5   13.27    1.87
  -1   7   5   11.26    1.25
  -1   7   5   10.92    1.75
  -1   7   5   10.36    1.18
  -1   7   5    8.76    1.12
  -1   7   5   11.47    1.44
  -1   7   5   11.43    1.26
  -1   7   5   11.26    1.26
  -1   7   5    8.88    1.97
  -1   7   5   12.12    2.27
  -1   7   5    9.78    1.09
  -1   7   6   28.69    2.97
  -1   7   6   28.86    2.25
  -1   7   6   29.44    2.52
  -1   7   6   30.94    2.35
  -1   7   6   21.69    3.19
  -1   7   6   24.30    3.28
  -1   7   6   28.51    2.26
  -1   7   6   30.22    2.35
  -1   7   7  144.98    8.48
  -1   7   7  148.01    8.55
  -1   7   7  126.31    8.29
  -1   7   7  146.62    8.44
  -1   7   7  146.66    8.68
  -1   7   8    9.27    1.15
  -1   7   8    6.96    1.00
  -1   7   8    7.08    1.32
  -1   7   9    1.22    0.56
  -1   7   9    1.23    0.91
  -1   7   9    1.02    0.55
  -1   7  10    7.50    0.87
  -1   7  10    9.44    1.18
  -1   7  10    8.94    1.02
  -1   7  11   -0.09    0.49
  -1   8  -5    7.13    0.64
  -1   8  -4    7.04    1.04
  -1   8  -4    7.78    1.11
  -1   8  -3   35.85    2.24
  -1   8  -3   31.03    2.76
  -1   8  -3   28.33    2.08
  -1   8  -2    3.40    0.60
  -1   8  -2    2.59    0.94
  -1   8  -2    2.88    0.56
  -1   8  -1   62.73    4.19
  -1   8  -1   64.06    4.89
  -1   8  -1   65.58    4.13
  -1   8  -1   62.81    4.79
  -1   8  -1   70.68    4.22
  -1   8   0    1.34    0.87
  -1   8   0    2.51    0.64
  -1   8   0    2.62    0.56
  -1   8   0    3.66    0.62
  -1   8   0    1.69    0.97
  -1   8   0    2.56    0.61
  -1   8   1  120.41    7.07
  -1   8   1  120.21    7.74
  -1   8   1  120.27    6.89
  -1   8   1  108.33    6.72
  -1   8   1  108.03    8.72
  -1   8   1  106.89    8.67
  -1   8   1  104.30    7.49
  -1   8   1  120.05    6.95
  -1   8   2   28.26    2.29
  -1   8   2   29.75    3.66
  -1   8   2   24.11    3.40
  -1   8   2   28.75    2.19
  -1   8   2   30.24    2.84
  -1   8   2   28.16    2.22
  -1   8   3    8.56    1.08
  -1   8   3    3.12    1.16
  -1   8   3    5.34    0.91
  -1   8   3    6.95    0.93
  -1   8   3    5.76    1.30
  -1   8   4   -0.21    0.44
  -1   8   4   -0.15    0.86
  -1   8   4    0.06    0.42
  -1   8   4   -0.08    0.47
  -1   8   4    0.64    0.81
  -1   8   4   -0.32    0.67
  -1   8   4    0.52    0.54
  -1   8   4    0.91    1.00
  -1   8   5   80.63    5.62
  -1   8   5   75.85    4.90
  -1   8   5   79.16    5.62
  -1   8   5   74.67    4.76
  -1   8   5   71.58    6.58
  -1   8   5   69.15    6.47
  -1   8   5   73.43    4.73
  -1   8   6    1.73    1.02
  -1   8   6    1.38    0.66
  -1   8   6    0.86    0.38
  -1   8   6    1.19    0.55
  -1   8   6    1.82    0.65
  -1   8   7    4.45    0.87
  -1   8   7    5.00    0.81
  -1   8   7    7.16    0.97
  -1   8   8    9.99    1.12
  -1   8   8    9.66    1.17
  -1   8   8    8.53    1.32
  -1   8   8   11.51    1.21
  -1   8   9    0.73    0.48
  -1   8   9    0.34    0.44
  -1   8   9   -0.66    0.73
  -1   8  10   -0.04    0.31
  -1   8  10   -0.46    0.39
  -1   8  11    6.45    0.58
  -1   9  -4    6.96    0.53
  -1   9  -3   43.64    2.66
  -1   9  -2   16.29    1.62
  -1   9  -2   15.78    1.26
  -1   9  -2   18.48    1.31
  -1   9  -1    8.79    0.95
  -1   9  -1   12.41    1.10
  -1   9  -1   10.70    1.39
  -1   9  -1   11.78    1.00
  -1   9   0   -0.06    0.38
  -1   9   0   -0.12    0.45
  -1   9   0    0.34    0.72
  -1   9   1    3.69    1.00
  -1   9   1    4.81    0.83
  -1   9   1    5.60    0.75
  -1   9   1    4.69    0.77
  -1   9   1    5.25    1.17
  -1   9   2    1.61    0.54
  -1   9   2    1.23    0.62
  -1   9   2    1.02    0.90
  -1   9   2    1.25    0.92
  -1   9   3    0.13    0.85
  -1   9   3    0.08    0.46
  -1   9   3    0.14    0.44
  -1   9   3    0.13    0.85
  -1   9   3    0.27    0.48
  -1   9   4  175.91   10.95
  -1   9   4  177.56   10.37
  -1   9   4  172.89   10.30
  -1   9   4  191.97   11.09
  -1   9   5    1.40    0.59
  -1   9   5    1.63    0.65
  -1   9   5    2.13    0.55
  -1   9   5    2.87    1.00
  -1   9   6  149.69    8.56
  -1   9   6  143.24    8.41
  -1   9   6  148.28    9.14
  -1   9   6  142.03    8.59
  -1   9   7   53.99    3.50
  -1   9   7   50.34    3.41
  -1   9   7   52.76    3.36
  -1   9   8    9.66    0.98
  -1   9   8    9.14    0.94
  -1   9   9    0.14    0.32
  -1   9  10   -0.03    0.15
  -1   9  10   -0.17    0.20
  -1  10  -1    1.67    0.31
  -1  10   0   29.53    1.97
  -1  10   1   20.33    1.47
  -1  10   1   17.64    1.44
  -1  10   1   17.09    1.68
  -1  10   2  103.11    5.84
  -1  10   2   87.27    5.27
  -1  10   2   85.91    5.42
  -1  10   3   30.87    2.18
  -1  10   3   33.75    2.60
  -1  10   3   33.01    2.18
  -1  10   3   27.15    2.21
  -1  10   4    2.47    0.57
  -1  10   4    2.66    0.51
  -1  10   5    1.46    0.48
  -1  10   5    1.74    0.60
  -1  10   6   79.81    4.37
  -1  10   6   63.78    4.32
  -1  10   7   -0.19    0.34
  -1  10   7    0.29    0.34
  -1  11   3    0.38    0.19
  -1  11   4   -0.12    0.20
  -1  11   4   -0.02    0.15
  -1  11   5   21.88    1.41
  -1  11   5   21.63    1.36
  -1  11   6    0.37    0.16
   0 -11  -7   14.25    1.40
   0 -11  -6    3.88    0.94
   0 -11  -5    8.93    1.35
   0 -11  -4   -0.40    0.80
   0 -11  -3   19.16    2.23
   0 -11  -2   32.86    2.44
   0 -11  -2   28.56    2.45
   0 -11  -2   30.03    2.69
   0 -10  -8    0.30    0.63
   0 -10  -7    2.26    0.74
   0 -10  -7    2.85    0.79
   0 -10  -7    3.81    1.05
   0 -10  -6    0.59    0.67
   0 -10  -6    2.51    0.99
   0 -10  -6    1.57    0.74
   0 -10  -6    0.96    0.97
   0 -10  -5   39.42    3.24
   0 -10  -5   35.46    2.99
   0 -10  -5   35.11    2.99
   0 -10  -5   40.32    3.36
   0 -10  -4    2.96    0.94
   0 -10  -4    3.61    1.03
   0 -10  -4    2.91    1.12
   0 -10  -4    4.24    1.69
   0 -10  -3   -0.33    0.56
   0 -10  -2    9.99    1.47
   0 -10  -2   11.04    1.37
   0 -10  -2   11.35    1.70
   0 -10  -2   12.84    2.96
   0 -10  -1   55.99    3.82
   0 -10  -1   50.63    3.84
   0 -10  -1   57.10    4.45
   0 -10  -1   54.18    4.09
   0 -10  -1   56.56    5.01
   0 -10   0    0.93    0.61
   0 -10   0    1.22    1.00
   0 -10   0    3.14    1.24
   0 -10   0    1.50    2.09
   0 -10   1    0.50    0.65
   0 -10   2    4.84    0.45
   0  -9  -9   19.82    1.72
   0  -9  -9   19.85    2.08
   0  -9  -8   26.24    4.79
   0  -9  -8   26.56    4.53
   0  -9  -8   25.64    2.43
   0  -9  -8   17.48    1.92
   0  -9  -8   26.17    2.13
   0  -9  -7   18.66    4.42
   0  -9  -7   16.88    2.17
   0  -9  -7   21.43    1.93
   0  -9  -7   14.71    1.77
   0  -9  -7   16.79    1.86
   0  -9  -7   18.37    2.18
   0  -9  -6   40.33    3.28
   0  -9  -6   37.62    3.25
   0  -9  -6   38.94    3.23
   0  -9  -6   35.96    5.53
   0  -9  -6   41.04    6.23
   0  -9  -6   42.43    3.67
   0  -9  -6   41.06    5.99
   0  -9  -6   47.76    3.28
   0  -9  -5   36.00    3.19
   0  -9  -5   38.06    3.45
   0  -9  -5   39.22    3.28
   0  -9  -5   37.54    3.22
   0  -9  -5   34.67    5.78
   0  -9  -5   46.70    3.75
   0  -9  -5   35.65    5.56
   0  -9  -5   36.31    4.95
   0  -9  -5   42.37    7.58
   0  -9  -5   42.38    3.09
   0  -9  -4   43.14    3.66
   0  -9  -4   40.88    3.46
   0  -9  -4   41.21    3.45
   0  -9  -4   40.14    3.41
   0  -9  -4   43.56    3.79
   0  -9  -4   45.85    5.60
   0  -9  -4   38.42    5.64
   0  -9  -4   43.49    7.52
   0  -9  -4   42.66    6.08
   0  -9  -4   32.55    5.43
   0  -9  -4   46.53    3.23
   0  -9  -3   13.51    3.33
   0  -9  -3   22.80    3.95
   0  -9  -3   13.68    3.30
   0  -9  -3   17.43    1.72
   0  -9  -3   18.31    2.17
   0  -9  -3   16.65    2.02
   0  -9  -2  127.39    7.81
   0  -9  -2  116.13    8.12
   0  -9  -2  122.83    8.29
   0  -9  -2  132.42    8.41
   0  -9  -1  179.73   10.67
   0  -9  -1  167.63   11.16
   0  -9  -1  175.74   10.23
   0  -9  -1  154.00   10.15
   0  -9  -1  157.31   10.28
   0  -9   0    4.66    1.30
   0  -9   0    3.17    1.47
   0  -9   0    3.36    1.05
   0  -9   0    4.63    1.13
   0  -9   1   17.43    2.30
   0  -9   1   15.54    1.77
   0  -9   2    7.18    1.42
   0  -9   2    7.96    1.16
   0  -9   2    5.60    0.85
   0  -9   3   22.13    2.72
   0  -8 -11   11.23    1.16
   0  -8 -10    1.42    0.76
   0  -8 -10    1.77    1.94
   0  -8  -9    5.88    1.25
   0  -8  -9    7.60    2.98
   0  -8  -8    8.75    1.51
   0  -8  -8    5.87    1.08
   0  -8  -8   10.54    3.36
   0  -8  -8    8.57    2.87
   0  -8  -7    0.29    0.94
   0  -8  -7   -0.11    0.72
   0  -8  -7    1.20    0.73
   0  -8  -7    0.10    0.68
   0  -8  -7    0.61    0.84
   0  -8  -7    0.83    2.12
   0  -8  -7    1.10    1.61
   0  -8  -7    1.81    1.98
   0  -8  -7   -1.10    3.02
   0  -8  -6    0.43    0.96
   0  -8  -6    1.52    0.79
   0  -8  -6    0.93    0.80
   0  -8  -6    1.24    0.81
   0  -8  -6    1.25    0.98
   0  -8  -6    3.45    1.92
   0  -8  -6    1.61    2.64
   0  -8  -6    2.40    2.35
   0  -8  -6    1.63    1.96
   0  -8  -6    1.18    1.29
   0  -8  -6    1.10    3.02
   0  -8  -5   -0.12    0.73
   0  -8  -5    1.32    2.06
   0  -8  -5   -0.66    1.82
   0  -8  -5   -0.12    0.76
   0  -8  -5   -0.12    0.70
   0  -8  -5   -0.12    0.74
   0  -8  -5   -0.79    0.90
   0  -8  -5   -0.48    1.23
   0  -8  -5    1.54    2.76
   0  -8  -5   -1.05    3.45
   0  -8  -5    0.57    1.68
   0  -8  -5    0.42    1.22
   0  -8  -5   -0.53    1.75
   0  -8  -5    1.44    1.58
   0  -8  -4  133.30   12.00
   0  -8  -4  152.15   12.90
   0  -8  -4  154.33   14.30
   0  -8  -4  126.66   11.89
   0  -8  -4  159.91    9.90
   0  -8  -4  152.39    9.54
   0  -8  -4  159.35    9.80
   0  -8  -4  146.35    9.51
   0  -8  -4  152.83    9.50
   0  -8  -4  138.08   12.58
   0  -8  -4  136.19   11.88
   0  -8  -4  178.38   16.92
   0  -8  -4  173.70    9.62
   0  -8  -3  143.62   12.29
   0  -8  -3  153.87   13.45
   0  -8  -3  168.65    9.66
   0  -8  -3  129.01   11.65
   0  -8  -3  143.35    9.15
   0  -8  -3  144.61    9.27
   0  -8  -3  140.02    9.09
   0  -8  -3  125.51   11.66
   0  -8  -3  125.12   11.41
   0  -8  -3  165.42   15.66
   0  -8  -3  155.11    9.05
   0  -8  -2  308.17   22.97
   0  -8  -2  345.29   19.98
   0  -8  -2  357.93   20.02
   0  -8  -2  326.26   19.89
   0  -8  -2  307.81   22.51
   0  -8  -2  329.79   22.92
   0  -8  -2  407.13   27.40
   0  -8  -2  386.08   20.45
   0  -8  -2  315.52   23.01
   0  -8  -2  343.36   19.63
   0  -8  -2  327.10   24.14
   0  -8  -1    0.39    0.90
   0  -8  -1    1.80    0.81
   0  -8  -1    0.94    0.90
   0  -8  -1    2.19    1.00
   0  -8  -1    2.08    1.09
   0  -8  -1    2.46    1.70
   0  -8  -1    1.51    1.57
   0  -8  -1    1.51    0.68
   0  -8  -1    0.58    1.48
   0  -8   0   -0.70    1.36
   0  -8   0   -0.67    0.84
   0  -8   0   -0.76    1.05
   0  -8   0    0.18    0.56
   0  -8   0    0.31    0.81
   0  -8   0    0.10    0.54
   0  -8   0   -1.02    1.68
   0  -8   0    0.55    1.52
   0  -8   1   16.45    1.73
   0  -8   1   19.49    3.72
   0  -8   1   11.59    1.48
   0  -8   1   14.86    2.53
   0  -8   1   18.81    2.00
   0  -8   1   17.65    1.97
   0  -8   1   13.52    1.88
   0  -8   2    0.42    0.63
   0  -8   2    0.40    1.27
   0  -8   2    0.25    0.70
   0  -8   2   -0.48    2.85
   0  -8   2    0.76    0.58
   0  -8   3    1.47    1.17
   0  -8   3    0.67    0.47
   0  -8   3    1.09    0.67
   0  -8   3    0.68    0.64
   0  -8   3    3.49    2.53
   0  -8   4  181.51   11.01
   0  -8   4  179.36   10.43
   0  -8   4  160.79   10.04
   0  -8   5    0.42    0.29
   0  -7 -11    1.22    0.94
   0  -7 -11    3.71    1.26
   0  -7 -10   42.42    6.41
   0  -7 -10   36.95    6.02
   0  -7  -9  348.13   19.20
   0  -7  -9  299.02   23.03
   0  -7  -9  323.43   24.48
   0  -7  -8  442.83   24.03
   0  -7  -8  359.14   29.49
   0  -7  -8  363.90   31.14
   0  -7  -8  412.09   28.22
   0  -7  -8  388.96   27.23
   0  -7  -7  391.71   21.43
   0  -7  -7  379.86   21.40
   0  -7  -7  365.82   21.32
   0  -7  -7  388.92   21.85
   0  -7  -7  328.77   27.17
   0  -7  -7  382.68   25.96
   0  -7  -7  301.65   28.04
   0  -7  -7  349.43   24.07
   0  -7  -7  378.69   25.24
   0  -7  -6    5.52    2.05
   0  -7  -6    7.23    1.14
   0  -7  -6    6.15    1.09
   0  -7  -6    6.65    1.08
   0  -7  -6    6.31    1.30
   0  -7  -6    5.10    1.90
   0  -7  -6    3.70    1.95
   0  -7  -6    4.75    3.20
   0  -7  -6   -1.01    4.07
   0  -7  -6    2.69    1.47
   0  -7  -6    6.82    2.39
   0  -7  -6    6.77    2.58
   0  -7  -6    5.81    2.00
   0  -7  -5  148.53   11.21
   0  -7  -5  139.59    8.40
   0  -7  -5  132.93    8.38
   0  -7  -5  129.61    8.31
   0  -7  -5  154.53    8.86
   0  -7  -5  123.35   10.62
   0  -7  -5  157.72   13.90
   0  -7  -5   98.10   11.67
   0  -7  -5  145.35   11.13
   0  -7  -5  149.83   15.16
   0  -7  -5  128.65   10.30
   0  -7  -5  135.13   11.27
   0  -7  -5  127.66   10.72
   0  -7  -4    4.67    1.79
   0  -7  -4    1.30    0.79
   0  -7  -4    0.41    0.66
   0  -7  -4    1.46    0.76
   0  -7  -4    1.82    0.90
   0  -7  -4    3.55    1.74
   0  -7  -4    1.08    1.19
   0  -7  -4    0.66    2.39
   0  -7  -4   -0.63    1.95
   0  -7  -4   -0.40    1.32
   0  -7  -4    0.89    3.07
   0  -7  -4    2.30    1.66
   0  -7  -4    0.35    1.16
   0  -7  -3   98.39    5.96
   0  -7  -3   85.91    8.18
   0  -7  -3   86.89    7.80
   0  -7  -3   93.82   11.19
   0  -7  -3   73.38    5.39
   0  -7  -3   92.27    5.81
   0  -7  -3   98.23    5.89
   0  -7  -3   93.06    5.81
   0  -7  -3   98.36   10.16
   0  -7  -3   61.99    8.25
   0  -7  -3   91.07    7.71
   0  -7  -3   93.19    8.52
   0  -7  -3   89.29    8.02
   0  -7  -3   81.72    7.81
   0  -7  -3  108.69    6.27
   0  -7  -3   66.91    8.11
   0  -7  -3   83.13    7.50
   0  -7  -3   80.07    8.50
   0  -7  -2  260.58   13.73
   0  -7  -2  253.02   16.50
   0  -7  -2  255.44   16.44
   0  -7  -2  270.71   20.48
   0  -7  -2  214.34   13.32
   0  -7  -2  232.07   13.69
   0  -7  -2  197.35   16.61
   0  -7  -2  254.35   18.21
   0  -7  -2  226.98   16.49
   0  -7  -2  250.30   16.71
   0  -7  -2  209.43   15.20
   0  -7  -2  219.85   15.33
   0  -7  -1  329.16   22.14
   0  -7  -1  305.03   21.73
   0  -7  -1  327.19   23.15
   0  -7  -1  292.86   21.51
   0  -7  -1  392.45   19.67
   0  -7  -1  328.44   19.21
   0  -7  -1  353.08   19.29
   0  -7  -1  319.26   19.15
   0  -7  -1  330.38   19.18
   0  -7  -1  295.73   21.20
   0  -7  -1  354.63   25.46
   0  -7  -1  329.02   19.04
   0  -7   0  367.62   26.30
   0  -7   0  450.04   24.14
   0  -7   0  432.40   24.06
   0  -7   0  417.57   24.00
   0  -7   0  402.65   26.71
   0  -7   0  488.89   24.46
   0  -7   0  442.66   28.26
   0  -7   0  398.77   23.78
   0  -7   0  358.44   25.34
   0  -7   0  397.81   26.93
   0  -7   1  626.87   41.06
   0  -7   1  620.08   41.67
   0  -7   1  662.16   37.89
   0  -7   1  687.34   38.00
   0  -7   1  674.89   37.59
   0  -7   1  596.20   40.44
   0  -7   1  757.86   38.28
   0  -7   1  665.89   37.70
   0  -7   1  696.40   39.15
   0  -7   2  203.20   17.34
   0  -7   2  239.06   14.73
   0  -7   2  244.88   14.43
   0  -7   2  247.12   14.68
   0  -7   2  290.35   15.03
   0  -7   2  238.05   14.40
   0  -7   2  267.99   15.88
   0  -7   3    1.44    0.85
   0  -7   3    1.31    0.73
   0  -7   3   -0.25    2.79
   0  -7   3    0.18    0.60
   0  -7   3    3.98    1.67
   0  -7   3    2.03    0.84
   0  -7   3    0.64    1.26
   0  -7   4    1.40    0.80
   0  -7   4    3.52    2.59
   0  -7   4    1.28    1.37
   0  -7   4    1.18    0.62
   0  -7   4    1.49    0.81
   0  -7   5    2.07    0.78
   0  -7   5    2.11    1.09
   0  -7   6    0.07    0.44
   0  -7   6    0.73    0.38
   0  -7   7    7.63    0.58
   0  -6 -11    0.64    0.87
   0  -6 -11    1.47    0.98
   0  -6 -10   11.59    3.67
   0  -6 -10   12.27    3.54
   0  -6  -9  145.52   12.04
   0  -6  -9  132.70   13.47
   0  -6  -9  137.54   11.81
   0  -6  -9  124.72    8.05
   0  -6  -9  113.05   11.19
   0  -6  -9  125.63   12.39
   0  -6  -8   14.46    3.51
   0  -6  -8   15.42    4.75
   0  -6  -8   14.16    3.20
   0  -6  -8   12.29    3.32
   0  -6  -8   13.36    3.41
   0  -6  -7   84.71    8.42
   0  -6  -7   84.58    5.30
   0  -6  -7   88.43    8.59
   0  -6  -7   88.17    9.98
   0  -6  -7   70.36    7.02
   0  -6  -7   75.86    7.71
   0  -6  -7   84.58    8.35
   0  -6  -6    8.51    2.53
   0  -6  -6    9.77    4.41
   0  -6  -6    7.36    1.76
   0  -6  -6    1.77    1.76
   0  -6  -6    6.92    1.00
   0  -6  -6    8.78    1.10
   0  -6  -6    5.16    1.78
   0  -6  -6    6.94    1.18
   0  -6  -6    7.57    2.55
   0  -6  -6    6.17    3.36
   0  -6  -6    3.79    3.56
   0  -6  -6    5.20    1.89
   0  -6  -6    4.04    1.52
   0  -6  -5    0.39    1.77
   0  -6  -5    0.56    0.57
   0  -6  -5    0.15    0.51
   0  -6  -5    1.06    0.74
   0  -6  -5    0.64    0.94
   0  -6  -5    0.39    1.78
   0  -6  -5   -0.63    2.37
   0  -6  -5    0.37    1.20
   0  -6  -5   -0.64    1.00
   0  -6  -5    0.75    3.13
   0  -6  -5   -0.26    0.86
   0  -6  -4   66.52    9.44
   0  -6  -4  102.16    7.59
   0  -6  -4   88.75    5.58
   0  -6  -4  102.79    5.94
   0  -6  -4   86.91    5.53
   0  -6  -4  122.71    6.35
   0  -6  -4   85.19    7.47
   0  -6  -4  102.21    8.22
   0  -6  -4   82.86    9.12
   0  -6  -4  100.63    8.17
   0  -6  -4   92.18    5.67
   0  -6  -4   98.70    8.15
   0  -6  -4  101.54    7.88
   0  -6  -3  103.24   10.51
   0  -6  -3   96.85    7.43
   0  -6  -3   85.21    5.49
   0  -6  -3   90.85    5.48
   0  -6  -3  100.71    5.82
   0  -6  -3   92.73    5.76
   0  -6  -3  105.53    9.52
   0  -6  -3   74.61    8.36
   0  -6  -3  105.10    7.85
   0  -6  -3   90.79    5.58
   0  -6  -3   90.66    7.52
   0  -6  -3   96.37    7.55
   0  -6  -3   95.18    7.67
   0  -6  -2    0.66    2.16
   0  -6  -2    1.11    1.04
   0  -6  -2    0.86    0.43
   0  -6  -2    0.57    0.42
   0  -6  -2    0.31    0.60
   0  -6  -2    0.29    0.84
   0  -6  -2   -0.27    0.94
   0  -6  -2    2.42    1.88
   0  -6  -2    0.45    1.23
   0  -6  -2    1.56    1.28
   0  -6  -2   -0.27    0.89
   0  -6  -2   -0.39    1.07
   0  -6  -2    1.29    1.16
   0  -6  -1    0.65    1.79
   0  -6  -1    1.19    0.83
   0  -6  -1    0.69    0.47
   0  -6  -1    1.19    0.67
   0  -6  -1    2.57    0.74
   0  -6  -1    2.14    0.71
   0  -6  -1    0.91    1.00
   0  -6  -1    1.04    0.94
   0  -6  -1    1.90    1.56
   0  -6  -1    0.41    1.14
   0  -6  -1    1.45    1.19
   0  -6  -1    1.55    0.93
   0  -6  -1    1.45    1.19
   0  -6  -1    2.85    1.43
   0  -6  -1    1.94    1.30
   0  -6   0    0.49    0.47
   0  -6   0    0.82    0.60
   0  -6   0    0.77    0.58
   0  -6   0    1.00    0.70
   0  -6   0    1.50    0.67
   0  -6   0    1.80    0.72
   0  -6   0    1.56    1.12
   0  -6   0    0.95    1.31
   0  -6   0    2.05    1.37
   0  -6   0    1.04    0.94
   0  -6   0   -0.24    0.70
   0  -6   0    2.08    1.44
   0  -6   0    1.02    1.27
   0  -6   0    1.91    1.24
   0  -6   1  280.49   20.35
   0  -6   1  314.86   18.66
   0  -6   1  336.17   18.71
   0  -6   1  336.16   18.45
   0  -6   1  318.55   18.63
   0  -6   1  411.75   19.05
   0  -6   1  288.70   20.56
   0  -6   1  227.38   21.00
   0  -6   1  314.27   18.55
   0  -6   1  340.20   19.79
   0  -6   1  303.83   20.26
   0  -6   1  336.31   21.45
   0  -6   2  185.90   13.42
   0  -6   2  195.75   14.40
   0  -6   2  185.96   11.36
   0  -6   2  198.90   11.58
   0  -6   2  171.39   11.33
   0  -6   2  207.71   12.72
   0  -6   2  230.53   11.82
   0  -6   2  179.86   13.54
   0  -6   3    0.90    1.32
   0  -6   3    0.37    1.16
   0  -6   3    1.77    1.46
   0  -6   3    0.40    0.60
   0  -6   3    2.31    0.94
   0  -6   3    1.71    0.75
   0  -6   4   72.51    4.70
   0  -6   4   58.06    5.20
   0  -6   4   62.31    6.03
   0  -6   4   56.79    4.25
   0  -6   4   57.66    5.19
   0  -6   4   66.10    4.67
   0  -6   4   60.39    4.38
   0  -6   5   34.33    2.84
   0  -6   5   27.04    2.39
   0  -6   5   29.15    2.66
   0  -6   5   28.43    2.55
   0  -6   5   33.41    4.10
   0  -6   6   -0.53    0.94
   0  -6   6    0.21    0.46
   0  -6   6   -0.12    0.29
   0  -6   7    0.90    0.53
   0  -6   7    2.43    0.50
   0  -6   8    7.63    0.59
   0  -5 -11    9.95    1.70
   0  -5 -11    9.25    2.92
   0  -5 -11    8.57    1.57
   0  -5 -10   48.53    6.77
   0  -5  -9  204.72   16.94
   0  -5  -9  189.35   14.75
   0  -5  -9  160.22   13.89
   0  -5  -9  170.12   14.85
   0  -5  -9  204.29   15.02
   0  -5  -8   71.56    7.55
   0  -5  -8   69.00    7.46
   0  -5  -8   60.26    8.33
   0  -5  -8   68.30    7.39
   0  -5  -8   74.43    9.50
   0  -5  -7    7.69    2.72
   0  -5  -7    6.46    2.13
   0  -5  -7   10.69    2.87
   0  -5  -7    7.01    3.39
   0  -5  -7    5.71    1.77
   0  -5  -7    3.41    2.95
   0  -5  -7    6.23    3.61
   0  -5  -6   35.47    4.36
   0  -5  -6   21.48    3.02
   0  -5  -6   24.57    2.81
   0  -5  -6   28.04    5.03
   0  -5  -6   35.16    4.42
   0  -5  -6   25.02    3.61
   0  -5  -6   20.24    2.97
   0  -5  -6   28.25    5.29
   0  -5  -6   41.17    6.58
   0  -5  -5  114.85    8.43
   0  -5  -5   73.81    6.86
   0  -5  -5   99.50    5.97
   0  -5  -5   94.05    6.88
   0  -5  -5  107.05    9.52
   0  -5  -5  105.43    8.20
   0  -5  -5   81.38    7.38
   0  -5  -5   88.14    7.17
   0  -5  -5  108.03   10.54
   0  -5  -4   52.35    5.29
   0  -5  -4   52.73    4.83
   0  -5  -4   61.73    4.84
   0  -5  -4   48.27    6.16
   0  -5  -4   59.60    5.54
   0  -5  -4   58.72    3.55
   0  -5  -4   61.74    5.14
   0  -5  -4   57.09    7.29
   0  -5  -3  633.83   34.40
   0  -5  -3  632.86   34.37
   0  -5  -3  657.79   36.21
   0  -5  -3  679.05   36.10
   0  -5  -3  448.34   37.56
   0  -5  -3  573.05   36.37
   0  -5  -3  521.92   37.41
   0  -5  -3  636.14   34.45
   0  -5  -3  667.33   36.38
   0  -5  -3  588.87   36.41
   0  -5  -2  445.68   24.92
   0  -5  -2  438.93   24.88
   0  -5  -2  488.49   26.73
   0  -5  -2  519.59   27.14
   0  -5  -2  548.18   28.98
   0  -5  -2  377.86   27.35
   0  -5  -2  435.31   24.94
   0  -5  -2  483.69   26.80
   0  -5  -2  457.91   29.29
   0  -5  -2  482.58   26.59
   0  -5  -2  501.55   27.03
   0  -5  -1  163.39   12.01
   0  -5  -1  205.16   11.43
   0  -5  -1  198.36   11.38
   0  -5  -1  206.53   12.44
   0  -5  -1  224.62   13.43
   0  -5  -1  205.06   11.45
   0  -5  -1  224.04   13.40
   0  -5  -1  239.01   14.93
   0  -5  -1  198.26   14.12
   0  -5  -1  225.11   13.26
   0  -5  -1  171.61   13.49
   0  -5  -1  238.17   13.39
   0  -5  -1  162.80   13.37
   0  -5  -1  245.82   16.26
   0  -5   0    0.53    0.73
   0  -5   0   -0.25    0.78
   0  -5   0   -0.53    1.56
   0  -5   0    0.15    0.34
   0  -5   0    0.19    0.34
   0  -5   0    0.33    0.48
   0  -5   0    0.26    0.55
   0  -5   0    0.26    0.46
   0  -5   0    0.23    0.83
   0  -5   0    0.25    0.84
   0  -5   0    0.22    0.72
   0  -5   0    0.76    1.12
   0  -5   0    0.66    0.96
   0  -5   0   -0.22    0.80
   0  -5   0   -0.28    0.77
   0  -5   0    0.85    0.93
   0  -5   0    0.44    0.64
   0  -5   1   17.59    2.53
   0  -5   1   21.12    2.68
   0  -5   1   16.04    2.53
   0  -5   1   26.73    2.01
   0  -5   1   21.02    1.79
   0  -5   1   19.98    1.80
   0  -5   1   21.82    1.83
   0  -5   1   16.97    3.25
   0  -5   1   21.74    3.00
   0  -5   1   19.87    2.56
   0  -5   1   23.25    3.17
   0  -5   1   18.38    2.68
   0  -5   1   17.42    2.67
   0  -5   2  133.66    7.97
   0  -5   2  130.03    7.96
   0  -5   2  134.84    7.87
   0  -5   2  118.20    7.86
   0  -5   2  125.20    9.41
   0  -5   2  124.66    9.97
   0  -5   2  104.25   10.24
   0  -5   2  154.59    8.15
   0  -5   2  129.77    9.48
   0  -5   3   43.26    5.21
   0  -5   3   41.89    4.73
   0  -5   3   50.96    3.36
   0  -5   3   42.08    3.27
   0  -5   3   44.03    4.17
   0  -5   4  117.25    9.01
   0  -5   4  113.00    9.27
   0  -5   4  127.95   10.39
   0  -5   4  122.92    8.06
   0  -5   4  128.86    9.17
   0  -5   4  141.53    8.17
   0  -5   4  150.19    8.48
   0  -5   5   46.77    4.97
   0  -5   5   40.76    3.40
   0  -5   5   47.17    4.44
   0  -5   5   48.95    3.74
   0  -5   5   48.04    3.58
   0  -5   6   10.18    1.60
   0  -5   6    9.99    1.87
   0  -5   6    7.09    1.19
   0  -5   6   11.87    2.75
   0  -5   6    6.93    1.32
   0  -5   7   39.11    2.67
   0  -5   7   36.25    3.20
   0  -5   7   42.35    3.46
   0  -5   7   46.89    2.98
   0  -5   8    8.49    0.76
   0  -5   8    8.73    0.88
   0  -4 -11  103.23    7.08
   0  -4 -11  106.52    7.06
   0  -4 -10    1.20    1.66
   0  -4 -10    3.14    1.89
   0  -4 -10    1.52    2.38
   0  -4 -10    4.69    2.10
   0  -4  -9    7.00    2.42
   0  -4  -9   11.74    3.60
   0  -4  -9    8.98    2.83
   0  -4  -8  623.75   38.61
   0  -4  -8  605.71   36.35
   0  -4  -8  594.00   36.27
   0  -4  -8  552.07   35.64
   0  -4  -8  581.90   36.73
   0  -4  -7   53.19    7.77
   0  -4  -7   42.31    6.00
   0  -4  -7   46.89    5.23
   0  -4  -7   38.98    5.86
   0  -4  -7   42.20    4.99
   0  -4  -7   41.64    4.75
   0  -4  -7   32.20    4.02
   0  -4  -6    0.56    0.73
   0  -4  -6    1.84    1.28
   0  -4  -6    0.31    1.15
   0  -4  -6   -0.92    1.96
   0  -4  -6    1.25    1.14
   0  -4  -6    0.38    0.56
   0  -4  -6   -0.60    2.08
   0  -4  -6    5.22    2.31
   0  -4  -5   59.17    6.81
   0  -4  -5   49.89    5.81
   0  -4  -5   61.28    3.61
   0  -4  -5   48.73    4.33
   0  -4  -5   53.97    5.06
   0  -4  -5   49.78    4.97
   0  -4  -5   50.55    5.75
   0  -4  -5   49.85    4.09
   0  -4  -5   51.42    4.43
   0  -4  -4  586.78   32.29
   0  -4  -4  590.60   31.67
   0  -4  -4  474.48   29.17
   0  -4  -4  572.03   30.04
   0  -4  -4  527.86   31.09
   0  -4  -4  578.55   30.09
   0  -4  -4  556.53   29.09
   0  -4  -4  478.22   27.88
   0  -4  -4  533.20   29.40
   0  -4  -3   34.78    4.65
   0  -4  -3   31.29    3.31
   0  -4  -3   32.38    3.98
   0  -4  -3   32.11    3.35
   0  -4  -3   32.37    2.08
   0  -4  -3   32.81    3.02
   0  -4  -3   38.89    3.07
   0  -4  -2  543.19   35.21
   0  -4  -2  491.02   35.99
   0  -4  -2  553.86   35.27
   0  -4  -2  578.08   34.33
   0  -4  -2  649.95   33.94
   0  -4  -2  696.55   35.25
   0  -4  -2  706.12   35.16
   0  -4  -1  955.35   53.01
   0  -4  -1  922.63   52.31
   0  -4  -1 1086.85   55.32
   0  -4  -1 1083.87   53.97
   0  -4  -1 1029.27   53.86
   0  -4  -1 1006.17   55.94
   0  -4  -1 1028.21   53.56
   0  -4   0  285.40   16.46
   0  -4   0  251.19   16.86
   0  -4   0  286.95   16.48
   0  -4   0  241.83   16.80
   0  -4   0  255.99   14.95
   0  -4   0  304.25   17.84
   0  -4   0  254.08   17.23
   0  -4   0  270.17   15.95
   0  -4   0  280.32   16.44
   0  -4   0  298.64   16.34
   0  -4   0  299.34   16.52
   0  -4   0  317.45   19.02
   0  -4   1  192.54   13.15
   0  -4   1  194.14   13.17
   0  -4   1  217.58   12.88
   0  -4   1  203.62   12.88
   0  -4   1  208.64   13.12
   0  -4   1  225.12   14.39
   0  -4   1  202.69   13.64
   0  -4   1  201.97   12.80
   0  -4   1  219.45   13.31
   0  -4   2  593.29   32.93
   0  -4   2  533.25   30.83
   0  -4   2  591.35   30.95
   0  -4   2  556.08   30.89
   0  -4   2  561.62   32.39
   0  -4   2  538.54   32.48
   0  -4   2  547.47   33.74
   0  -4   2  552.50   32.40
   0  -4   2  560.90   32.12
   0  -4   2  537.87   31.90
   0  -4   2  567.10   32.00
   0  -4   3   13.62    2.26
   0  -4   3   10.58    2.19
   0  -4   3    9.24    1.73
   0  -4   3   11.71    1.85
   0  -4   4    2.05    0.73
   0  -4   4    4.59    1.53
   0  -4   4    1.30    1.02
   0  -4   4    2.50    1.33
   0  -4   4    1.72    0.65
   0  -4   4    1.45    0.73
   0  -4   5  142.70   10.22
   0  -4   5  128.97    8.89
   0  -4   5  149.11   10.02
   0  -4   5  150.50    9.15
   0  -4   5  166.19    9.11
   0  -4   6  152.64    8.55
   0  -4   6  140.27    9.10
   0  -4   7  212.38   12.10
   0  -4   7  219.32   12.85
   0  -4   7  205.74   13.14
   0  -4   7  207.33   12.33
   0  -4   8   54.64    3.36
   0  -4   8   53.23    3.49
   0  -4   8   45.82    3.75
   0  -4   9    0.31    0.32
   0  -4   9    0.30    0.27
   0  -3 -12   27.87    2.51
   0  -3 -11   17.48    2.00
   0  -3 -11   17.85    4.23
   0  -3 -10    0.15    0.85
   0  -3 -10   -0.51    1.58
   0  -3 -10    1.01    1.57
   0  -3  -9   37.15    4.96
   0  -3  -9   33.98    6.01
   0  -3  -9   24.67    4.39
   0  -3  -9   25.88    3.22
   0  -3  -9   35.61    4.87
   0  -3  -8  239.16   16.46
   0  -3  -8  229.83   14.65
   0  -3  -8  236.27   16.47
   0  -3  -7   52.64    5.28
   0  -3  -7   56.42    4.51
   0  -3  -7   58.52    5.84
   0  -3  -7   59.71    5.86
   0  -3  -6  147.19    9.99
   0  -3  -6  146.34   10.61
   0  -3  -6  164.13   10.66
   0  -3  -6  159.88   11.89
   0  -3  -6  146.15    9.33
   0  -3  -6  146.13   10.57
   0  -3  -5  150.38   10.26
   0  -3  -5  142.56    9.13
   0  -3  -5  150.01    9.50
   0  -3  -5  147.75    9.43
   0  -3  -5  155.67   11.34
   0  -3  -5  152.96    9.17
   0  -3  -5  166.21    9.30
   0  -3  -5  153.17   10.30
   0  -3  -4  853.01   48.19
   0  -3  -4  839.19   49.22
   0  -3  -4  903.88   48.71
   0  -3  -4  872.22   50.17
   0  -3  -4  940.81   48.52
   0  -3  -4  870.20   48.30
   0  -3  -4  829.88   49.20
   0  -3  -3   17.40    1.40
   0  -3  -3   17.97    2.04
   0  -3  -3   18.07    1.83
   0  -3  -3   23.35    2.81
   0  -3  -3   17.86    2.77
   0  -3  -3   19.06    1.76
   0  -3  -3   19.38    2.10
   0  -3  -3   20.25    2.63
   0  -3  -2   15.28    1.08
   0  -3  -2   17.74    1.97
   0  -3  -2   16.45    1.69
   0  -3  -2   22.19    3.04
   0  -3  -2   16.89    1.63
   0  -3  -2   14.47    2.21
   0  -3  -2   16.91    1.91
   0  -3  -1   85.15    6.06
   0  -3  -1   86.37    6.10
   0  -3  -1   79.25    6.57
   0  -3  -1  109.15    6.03
   0  -3  -1   88.11    5.10
   0  -3  -1  109.11    6.00
   0  -3   0   33.57    2.55
   0  -3   0   35.85    2.81
   0  -3   0   34.86    3.52
   0  -3   0   31.81    3.32
   0  -3   0   37.73    2.98
   0  -3   0   35.16    2.71
   0  -3   0   30.43    2.17
   0  -3   0   27.46    2.28
   0  -3   0   37.43    2.97
   0  -3   0   29.50    3.05
   0  -3   0   31.44    3.11
   0  -3   1  675.18   39.07
   0  -3   1  669.59   39.08
   0  -3   1  676.73   37.59
   0  -3   1  695.91   38.60
   0  -3   1  706.73   38.50
   0  -3   1  687.38   39.47
   0  -3   1  701.84   39.69
   0  -3   1  724.48   38.48
   0  -3   1  651.49   38.05
   0  -3   1  744.04   38.81
   0  -3   2  342.90   21.79
   0  -3   2  402.33   21.93
   0  -3   2  355.99   22.86
   0  -3   2  363.67   22.16
   0  -3   2  374.57   21.58
   0  -3   2  409.69   22.25
   0  -3   2  369.82   21.86
   0  -3   2  379.21   21.88
   0  -3   3  246.59   14.61
   0  -3   3  229.91   13.09
   0  -3   3  239.56   14.81
   0  -3   3  209.94   13.87
   0  -3   3  244.20   14.48
   0  -3   3  239.44   14.12
   0  -3   3  233.51   14.08
   0  -3   4  104.05    6.47
   0  -3   4   90.29    7.82
   0  -3   4  110.27    7.40
   0  -3   4  114.54    7.44
   0  -3   4  113.02    6.71
   0  -3   4  113.28    7.80
   0  -3   5    1.41    0.64
   0  -3   5    1.81    0.69
   0  -3   5   -0.32    1.11
   0  -3   6   -0.33    0.74
   0  -3   6    0.57    1.10
   0  -3   6    0.11    0.66
   0  -3   6    1.52    0.82
   0  -3   7  104.89    6.73
   0  -3   7   98.36    6.17
   0  -3   7  101.56    6.83
   0  -3   7   98.56    7.22
   0  -3   7  103.84    6.41
   0  -3   8   20.24    1.69
   0  -3   8   17.01    2.03
   0  -3   8   19.67    2.39
   0  -3   8   21.94    1.84
   0  -3   9    0.06    0.38
   0  -3   9   -0.05    0.37
   0  -3  10   16.92    1.15
   0  -3  10   13.58    1.06
   0  -2 -12    7.83    1.33
   0  -2 -11   20.28    4.14
   0  -2 -10  168.26   12.45
   0  -2 -10  145.34   13.40
   0  -2 -10  174.63   12.57
   0  -2 -10  164.74   10.50
   0  -2  -9   62.24    4.81
   0  -2  -9   66.11    7.11
   0  -2  -9   67.74    7.07
   0  -2  -9   75.50    5.98
   0  -2  -9   68.88    5.52
   0  -2  -9   61.11    8.34
   0  -2  -8   29.43    2.97
   0  -2  -8   26.33    4.18
   0  -2  -8   27.65    3.09
   0  -2  -7    2.48    0.82
   0  -2  -7    2.38    0.91
   0  -2  -7    2.52    0.86
   0  -2  -6  425.61   25.92
   0  -2  -6  437.22   25.49
   0  -2  -6  521.85   26.43
   0  -2  -6  470.57   26.80
   0  -2  -5  572.96   35.44
   0  -2  -5  628.95   35.14
   0  -2  -5  658.83   35.81
   0  -2  -4   27.87    1.84
   0  -2  -4   35.94    2.40
   0  -2  -4   28.00    2.21
   0  -2  -4   30.22    1.99
   0  -2  -4   28.20    2.13
   0  -2  -4   31.57    2.30
   0  -2  -4   33.98    2.44
   0  -2  -3  461.58   25.21
   0  -2  -3  466.82   23.97
   0  -2  -3  404.79   23.87
   0  -2  -3  412.62   23.60
   0  -2  -3  417.16   23.98
   0  -2  -3  483.67   24.18
   0  -2  -3  468.92   24.08
   0  -2  -2  480.25   23.44
   0  -2  -2  392.36   21.78
   0  -2  -2  400.00   22.37
   0  -2  -2  395.83   21.83
   0  -2  -2  356.68   22.04
   0  -2  -2  418.93   22.21
   0  -2  -2  406.46   21.98
   0  -2  -2  390.31   22.78
   0  -2  -2  402.16   22.39
   0  -2  -1  697.21   35.59
   0  -2  -1  594.57   33.97
   0  -2  -1  587.50   34.59
   0  -2  -1  712.59   34.49
   0  -2  -1  576.11   34.95
   0  -2  -1  611.82   34.63
   0  -2  -1  708.33   34.52
   0  -2   0  376.55   20.53
   0  -2   0  357.34   19.91
   0  -2   0  403.51   21.18
   0  -2   0  381.50   20.54
   0  -2   1   25.05    2.09
   0  -2   1   28.77    2.05
   0  -2   1   29.14    2.24
   0  -2   1   28.58    2.85
   0  -2   1   30.16    2.80
   0  -2   1   27.42    2.60
   0  -2   1   29.01    2.64
   0  -2   1   28.15    2.31
   0  -2   1   27.83    2.13
   0  -2   2 1382.17   78.90
   0  -2   2 1436.67   79.20
   0  -2   2 1447.63   79.19
   0  -2   2 1366.16   79.90
   0  -2   2 1464.26   79.43
   0  -2   2 1465.12   79.14
   0  -2   2 1440.56   78.78
   0  -2   2 1491.24   79.28
   0  -2   3 1137.03   63.76
   0  -2   3 1220.54   63.82
   0  -2   3 1083.55   62.97
   0  -2   3 1161.52   63.51
   0  -2   3 1177.46   63.53
   0  -2   4   62.02    4.31
   0  -2   4   73.70    5.06
   0  -2   4   68.44    4.97
   0  -2   4   64.38    5.22
   0  -2   4   66.10    4.00
   0  -2   5  133.17    8.01
   0  -2   5  147.25    8.14
   0  -2   5  123.56    9.50
   0  -2   5  117.28    8.25
   0  -2   5  138.34    7.97
   0  -2   6   20.02    2.54
   0  -2   6   18.93    1.97
   0  -2   6   23.07    2.40
   0  -2   6   24.47    2.13
   0  -2   7   27.80    2.31
   0  -2   7   30.17    3.13
   0  -2   7   30.10    2.69
   0  -2   7   30.31    2.62
   0  -2   8   44.40    3.82
   0  -2   8   41.94    2.99
   0  -2   8   36.82    3.25
   0  -2   8   39.52    3.28
   0  -2   9   30.42    2.29
   0  -2  10    9.44    0.90
   0  -1 -11    5.49    2.47
   0  -1 -10   87.70    9.95
   0  -1 -10  114.28    7.89
   0  -1 -10   95.66    9.18
   0  -1 -10  109.93    9.53
   0  -1 -10   97.73    7.86
   0  -1  -9   35.65    3.78
   0  -1  -9   26.25    2.71
   0  -1  -9   33.75    5.76
   0  -1  -9   36.31    3.61
   0  -1  -8   67.03    5.02
   0  -1  -8   71.22    5.89
   0  -1  -8   84.23    5.68
   0  -1  -8   75.12    5.77
   0  -1  -7   75.90    5.75
   0  -1  -7   64.08    5.19
   0  -1  -7   67.38    4.93
   0  -1  -7   58.18    6.23
   0  -1  -6  123.30    7.64
   0  -1  -6  100.39    7.11
   0  -1  -6  104.83    6.93
   0  -1  -5  129.86    7.45
   0  -1  -5  121.72    7.45
   0  -1  -5  109.96    6.64
   0  -1  -4    2.70    0.57
   0  -1  -4    3.48    0.49
   0  -1  -4    4.53    0.78
   0  -1  -4    4.06    0.54
   0  -1  -3   51.00    3.18
   0  -1  -3   51.07    3.44
   0  -1  -3   58.62    3.50
   0  -1  -2   22.12    1.45
   0  -1  -2   18.54    1.46
   0  -1  -2   23.49    1.52
   0  -1  -1  407.99   23.76
   0  -1  -1  398.58   23.75
   0  -1  -1  436.99   23.61
   0  -1  -1  443.73   23.67
   0  -1  -1  457.47   23.72
   0  -1   0  171.11    9.08
   0  -1   0  185.28    9.42
   0  -1   0  167.58    9.08
   0  -1   1 1723.75   88.16
   0  -1   1 1712.39   88.04
   0  -1   1 1648.82   87.57
   0  -1   1 1363.57   87.33
   0  -1   1 1796.58   87.91
   0  -1   1 1802.51   87.91
   0  -1   1 1642.49   87.66
   0  -1   1 1745.97   87.50
   0  -1   2  159.15    9.08
   0  -1   2  156.22    9.27
   0  -1   2  160.84    9.03
   0  -1   2  131.96    8.68
   0  -1   2  158.15    9.10
   0  -1   2  159.04    9.15
   0  -1   2  165.16    9.17
   0  -1   2  154.06    8.65
   0  -1   3   52.16    3.40
   0  -1   3   47.72    3.29
   0  -1   3   52.58    3.58
   0  -1   3   46.83    3.25
   0  -1   3   42.75    3.15
   0  -1   4  129.32    9.08
   0  -1   4  141.99    9.06
   0  -1   4  151.51    9.17
   0  -1   5    0.46    0.43
   0  -1   5   -0.20    0.85
   0  -1   5    0.31    0.41
   0  -1   5    0.71    0.71
   0  -1   6   28.88    2.37
   0  -1   6   30.96    2.47
   0  -1   7    3.09    1.18
   0  -1   7    2.51    0.65
   0  -1   7    1.40    0.46
   0  -1   7    1.37    0.40
   0  -1   7    2.11    0.76
   0  -1   7    1.09    0.63
   0  -1   8    6.87    0.98
   0  -1   8    8.08    1.68
   0  -1   8    7.26    0.91
   0  -1   8    6.87    0.82
   0  -1   8    6.89    1.18
   0  -1   8    5.67    1.10
   0  -1   9   73.49    4.54
   0  -1   9   68.47    4.53
   0  -1  10    8.97    0.98
   0  -1  10    7.76    1.05
   0  -1  10    8.44    0.93
   0  -1  11    2.15    0.35
   0  -1  11    3.22    0.47
   0   0 -11   14.03    1.70
   0   0 -10  285.08   21.60
   0   0 -10  277.46   17.44
   0   0  -9  122.70   11.63
   0   0  -9  111.99    8.37
   0   0  -9  115.80    8.68
   0   0  -8  510.91   31.23
   0   0  -8  618.13   36.47
   0   0  -8  483.49   30.33
   0   0  -8  511.96   31.53
   0   0  -8  575.42   31.32
   0   0  -7   66.32    5.64
   0   0  -7   59.08    4.97
   0   0  -7   67.01    4.96
   0   0  -7   57.72    4.36
   0   0  -6   12.00    1.37
   0   0  -6   14.18    1.98
   0   0  -6   12.92    1.67
   0   0  -6   10.00    1.37
   0   0  -5   -0.11    0.45
   0   0  -5    0.45    0.58
   0   0  -5    0.32    0.34
   0   0  -5    0.21    0.89
   0   0  -5    0.09    0.34
   0   0  -4  472.66   21.31
   0   0  -4  448.18   21.33
   0   0  -4  341.86   20.74
   0   0  -4  333.76   21.29
   0   0  -4  331.84   20.73
   0   0  -4  423.02   21.77
   0   0  -4  464.47   20.99
   0   0  -3    0.30    0.37
   0   0  -3    0.31    0.20
   0   0  -3    0.44    0.31
   0   0  -3    0.19    0.26
   0   0  -2 2302.46  130.36
   0   0  -2 2449.23  130.23
   0   0  -1  290.99   15.90
   0   0   1  313.00   14.12
   0   0   1  219.78   14.00
   0   0   2 2869.54  121.17
   0   0   2 2806.35  121.14
   0   0   3    0.60    0.55
   0   0   3    0.40    0.58
   0   0   4  421.77   24.11
   0   0   5    0.16    0.59
   0   0   5   -0.10    0.41
   0   0   6   12.57    1.28
   0   0   6   13.89    1.36
   0   0   7   58.75    4.07
   0   0   7   60.10    4.12
   0   0   7   60.00    3.79
   0   0   7   60.40    3.88
   0   0   8  606.03   33.75
   0   0   8  609.33   32.83
   0   0   8  578.82   32.85
   0   0   8  585.10   32.93
   0   0   9  126.54    8.69
   0   0   9  126.08    7.90
   0   0   9  133.83    7.92
   0   0   9  142.83    7.88
   0   0  10  328.37   17.78
   0   0  10  327.89   18.05
   0   0  10  297.85   17.69
   0   0  11   13.75    1.12
   0   0  11   13.28    1.26
   0   0  11   11.02    0.97
   0   0  12    5.50    0.50
   0   1 -11    1.29    1.01
   0   1 -11    2.80    1.06
   0   1 -10    5.22    2.28
   0   1 -10    7.55    1.63
   0   1 -10    5.79    1.23
   0   1  -9   76.67    9.42
   0   1  -9   77.25    6.09
   0   1  -9   72.18    5.68
   0   1  -9   65.09    5.91
   0   1  -9   71.01    5.84
   0   1  -8   11.11    1.86
   0   1  -8    6.82    1.59
   0   1  -8    5.50    1.41
   0   1  -8    5.90    3.06
   0   1  -8   14.28    3.78
   0   1  -8   11.47    2.32
   0   1  -7    2.56    2.21
   0   1  -7    2.37    1.02
   0   1  -7    2.42    1.01
   0   1  -7    1.07    0.74
   0   1  -7    1.41    0.70
   0   1  -6   19.94    2.09
   0   1  -6   23.91    2.96
   0   1  -6   22.07    2.31
   0   1  -6   27.61    2.67
   0   1  -5    0.44    1.13
   0   1  -5    0.17    0.50
   0   1  -5    0.95    0.69
   0   1  -5    0.71    0.49
   0   1  -5    0.59    0.42
   0   1  -4  117.42    7.29
   0   1  -4  139.29    7.20
   0   1  -4  105.06    7.32
   0   1  -4  127.12    7.41
   0   1  -4  107.89    6.86
   0   1  -3   38.63    3.13
   0   1  -3   50.31    3.08
   0   1  -3   44.20    2.71
   0   1  -3   43.95    2.63
   0   1  -3   45.46    2.64
   0   1  -3   48.97    2.98
   0   1  -3   46.73    2.72
   0   1  -3   51.90    3.27
   0   1  -3   53.11    3.28
   0   1  -2  159.68    8.81
   0   1  -2  150.81    8.99
   0   1  -2  148.74    8.72
   0   1  -2  150.17    8.72
   0   1  -2  164.61    8.82
   0   1  -2  164.07    8.80
   0   1  -2  163.08    9.10
   0   1  -2  168.73    9.12
   0   1  -1 1469.00   88.90
   0   1  -1 1660.91   88.83
   0   1  -1 1686.04   88.84
   0   1  -1 1654.79   88.83
   0   1  -1 1663.63   88.96
   0   1   0  133.35    7.67
   0   1   0  129.30    7.67
   0   1   0  149.73    7.72
   0   1   1  380.11   23.38
   0   1   1  466.87   23.36
   0   1   2   22.54    1.54
   0   1   2   24.57    1.56
   0   1   3   49.18    2.91
   0   1   3   50.15    2.91
   0   1   4    3.92    0.99
   0   1   5  128.99    7.80
   0   1   5  133.09    7.76
   0   1   6  122.15    7.53
   0   1   7   69.82    4.89
   0   1   8   68.70    4.34
   0   1   8   77.73    4.44
   0   1   8   76.66    5.18
   0   1   8   64.57    4.37
   0   1   8   63.72    4.34
   0   1   9   38.44    2.89
   0   1   9   37.37    2.56
   0   1   9   37.35    2.57
   0   1   9   30.54    2.50
   0   1   9   40.14    3.39
   0   1   9   31.87    2.48
   0   1  10  103.01    6.15
   0   1  10   96.38    5.76
   0   1  10   99.64    6.59
   0   1  10   87.46    5.68
   0   1  11    4.57    0.82
   0   1  11    3.00    0.49
   0   1  11    3.94    0.60
   0   1  12    6.80    0.62
   0   2 -10    7.77    1.75
   0   2 -10    7.55    1.57
   0   2  -9   36.52    3.82
   0   2  -9   24.82    2.66
   0   2  -9   23.10    4.73
   0   2  -9   33.36    3.42
   0   2  -8   33.53    6.30
   0   2  -8   34.78    3.82
   0   2  -8   39.56    4.65
   0   2  -8   44.37    3.94
   0   2  -8   38.85    4.13
   0   2  -8   42.99    4.15
   0   2  -7   26.68    3.26
   0   2  -7   36.70    3.61
   0   2  -7   25.72    5.57
   0   2  -7   27.87    4.93
   0   2  -7   30.26    3.85
   0   2  -7   29.49    3.33
   0   2  -7   35.83    3.34
   0   2  -6   25.00    3.16
   0   2  -6   32.34    3.08
   0   2  -6   18.93    2.41
   0   2  -6   33.29    5.82
   0   2  -6   24.17    4.45
   0   2  -5  124.36    7.88
   0   2  -5  123.78    8.25
   0   2  -5  113.53    8.02
   0   2  -5  129.16   10.85
   0   2  -4   62.86    4.28
   0   2  -4   69.40    7.26
   0   2  -4   61.01    6.23
   0   2  -4   59.33    4.45
   0   2  -4   56.55    4.36
   0   2  -3  970.05   61.00
   0   2  -3 1202.91   61.09
   0   2  -3 1189.10   60.52
   0   2  -3  968.69   61.05
   0   2  -3 1059.10   60.53
   0   2  -3 1099.56   60.54
   0   2  -3 1205.07   64.24
   0   2  -3 1160.14   63.13
   0   2  -3  980.96   61.04
   0   2  -3 1199.92   60.52
   0   2  -2 1499.59   73.60
   0   2  -2 1239.79   73.21
   0   2  -2 1313.85   73.60
   0   2  -2 1447.05   73.25
   0   2  -2 1405.67   73.23
   0   2  -2 1261.72   73.56
   0   2  -2 1241.62   73.21
   0   2  -2 1432.70   75.75
   0   2  -1   31.96    1.91
   0   2  -1   20.06    1.67
   0   2  -1   27.53    1.93
   0   2  -1   18.22    1.70
   0   2  -1   19.94    1.75
   0   2  -1   24.47    1.74
   0   2   0  266.44   15.64
   0   2   0  305.71   16.66
   0   2   0  276.80   17.06
   0   2   0  239.58   15.72
   0   2   0  305.59   15.84
   0   2   0  340.30   15.97
   0   2   0  280.46   15.80
   0   2   1  625.01   36.84
   0   2   1  668.24   36.58
   0   2   1  691.67   37.69
   0   2   1  709.38   36.78
   0   2   2  394.63   22.71
   0   2   2  456.74   23.05
   0   2   2  404.11   22.64
   0   2   2  422.98   22.90
   0   2   3  470.31   24.96
   0   2   3  443.30   24.53
   0   2   4   32.68    2.20
   0   2   4   31.95    2.20
   0   2   4   32.99    2.75
   0   2   5  614.25   34.06
   0   2   5  625.96   34.07
   0   2   6  477.93   26.84
   0   2   6  482.72   26.93
   0   2   7    2.74    0.84
   0   2   8   27.10    2.12
   0   2   8   29.10    2.12
   0   2   8   35.41    2.29
   0   2   8   28.49    2.42
   0   2   8   32.23    2.80
   0   2   8   25.75    2.18
   0   2   9   60.03    4.10
   0   2   9   77.34    4.34
   0   2   9   66.93    4.15
   0   2   9   72.09    4.59
   0   2   9   69.71    4.98
   0   2   9   53.91    4.16
   0   2  10  138.83    8.64
   0   2  10  150.21    8.70
   0   2  10  159.25    9.16
   0   2  10  164.26    9.64
   0   2  11   17.79    1.47
   0   2  11   22.02    1.89
   0   2  11   23.28    1.60
   0   2  11   21.84    1.60
   0   2  11   19.98    2.17
   0   2  12    6.67    0.63
   0   3 -10   14.46    1.72
   0   3  -9   -0.59    1.51
   0   3  -9   -0.50    1.10
   0   3  -8   16.82    2.49
   0   3  -8   18.28    2.52
   0   3  -8   19.99    3.03
   0   3  -7  100.46    7.18
   0   3  -7   92.04    6.83
   0   3  -7   77.05    7.65
   0   3  -7   87.30    7.19
   0   3  -7  101.55    7.49
   0   3  -7   81.76   10.17
   0   3  -7  100.46    7.40
   0   3  -6    0.62    0.68
   0   3  -6    0.75    0.95
   0   3  -6    0.31    0.72
   0   3  -6    0.43    0.67
   0   3  -6    0.69    0.67
   0   3  -6    0.78    1.98
   0   3  -5    0.94    0.81
   0   3  -5    1.65    0.71
   0   3  -5    1.02    0.97
   0   3  -5    1.58    0.90
   0   3  -5    2.08    2.27
   0   3  -4  115.05    7.27
   0   3  -4  115.06    7.26
   0   3  -4   99.82   10.08
   0   3  -4   94.34    7.20
   0   3  -3  194.61   14.17
   0   3  -3  273.08   13.77
   0   3  -3  217.44   16.87
   0   3  -3  247.57   14.34
   0   3  -3  258.62   13.74
   0   3  -3  222.76   14.31
   0   3  -3  234.53   13.79
   0   3  -3  232.29   13.79
   0   3  -2  305.66   21.20
   0   3  -2  401.71   21.04
   0   3  -2  304.24   23.09
   0   3  -2  393.80   21.44
   0   3  -2  401.01   21.04
   0   3  -2  377.68   21.01
   0   3  -2  388.69   21.03
   0   3  -2  350.58   21.28
   0   3  -1  678.30   36.34
   0   3  -1  689.38   36.35
   0   3  -1  692.76   36.57
   0   3  -1  657.52   38.03
   0   3  -1  573.26   36.28
   0   3   0   32.47    2.33
   0   3   0   30.82    2.45
   0   3   0   35.38    2.51
   0   3   0   29.76    2.42
   0   3   0   33.82    3.42
   0   3   0   33.80    3.44
   0   3   0   39.07    2.70
   0   3   1   92.00    5.73
   0   3   1  109.37    6.34
   0   3   1  104.59    6.18
   0   3   1   94.71    6.10
   0   3   1  100.11    6.44
   0   3   1   99.41    5.99
   0   3   1  111.74    6.22
   0   3   1   96.73    6.85
   0   3   2   16.91    1.37
   0   3   2   18.23    1.52
   0   3   3   22.43    1.91
   0   3   3   16.47    1.43
   0   3   3   21.40    1.88
   0   3   3   20.14    1.75
   0   3   4  860.77   47.91
   0   3   4  875.29   47.92
   0   3   5  175.06    9.70
   0   3   5  151.40    9.43
   0   3   5  158.37    9.47
   0   3   6  160.91    9.48
   0   3   7   59.07    4.25
   0   3   7   61.63    4.22
   0   3   8  218.69   11.71
   0   3   8  232.75   11.88
   0   3   8  193.31   11.59
   0   3   8  194.92   11.64
   0   3   8  222.34   12.43
   0   3   8  181.69   11.76
   0   3   9   24.47    1.90
   0   3   9   30.39    2.73
   0   3   9   25.11    1.94
   0   3  10    0.94    0.53
   0   3  10    0.86    0.40
   0   3  10   -0.41    1.02
   0   3  10    0.91    0.42
   0   3  11   22.01    1.96
   0   3  11   24.10    1.73
   0   3  11   17.94    2.12
   0   3  11   20.36    1.57
   0   3  12   27.71    1.77
   0   4 -10    0.72    0.15
   0   4  -9    1.19    1.07
   0   4  -8   38.76    5.73
   0   4  -8   49.70    4.23
   0   4  -8   41.86    3.89
   0   4  -8   45.49    4.25
   0   4  -7  192.96   12.87
   0   4  -7  193.94   12.48
   0   4  -7  161.18   15.36
   0   4  -7  187.94   12.34
   0   4  -7  199.52   12.62
   0   4  -7  177.84   12.38
   0   4  -6  133.59    9.62
   0   4  -6  139.25   10.03
   0   4  -6  140.44    9.32
   0   4  -6  132.44   10.06
   0   4  -6  138.71    9.35
   0   4  -6  120.36   12.57
   0   4  -6  114.02    8.93
   0   4  -5  176.09   10.74
   0   4  -5  141.61    9.43
   0   4  -5  160.70    9.81
   0   4  -5  137.55   12.99
   0   4  -5  120.20    9.06
   0   4  -5  151.55    9.86
   0   4  -5  147.37   10.04
   0   4  -5  110.44    8.68
   0   4  -4    0.44    1.66
   0   4  -4    1.40    0.94
   0   4  -4    0.60    0.72
   0   4  -4    1.31    0.70
   0   4  -4   -0.74    2.07
   0   4  -4    3.91    1.15
   0   4  -4    3.55    2.38
   0   4  -3   14.16    1.47
   0   4  -3   12.67    3.30
   0   4  -3    9.69    2.05
   0   4  -3   10.00    1.96
   0   4  -3   15.25    1.94
   0   4  -3   11.14    1.66
   0   4  -3   10.84    1.38
   0   4  -3   11.10    1.37
   0   4  -3   12.90    1.85
   0   4  -2  577.30   32.41
   0   4  -2  544.47   35.08
   0   4  -2  478.18   32.62
   0   4  -2  493.06   32.80
   0   4  -2  589.98   32.91
   0   4  -2  665.28   32.53
   0   4  -2  661.95   32.51
   0   4  -2  564.53   32.41
   0   4  -2  563.42   32.41
   0   4  -2  604.57   32.81
   0   4  -1  195.39   14.04
   0   4  -1  177.22   12.19
   0   4  -1  182.58   12.32
   0   4  -1  192.23   13.97
   0   4  -1  220.08   12.54
   0   4  -1  236.94   12.35
   0   4  -1  210.12   12.25
   0   4  -1  216.79   12.52
   0   4  -1  225.35   12.30
   0   4  -1  198.60   12.16
   0   4  -1  202.50   12.17
   0   4   0  299.83   17.28
   0   4   0  322.40   18.23
   0   4   0  291.77   18.03
   0   4   0  298.71   16.52
   0   4   0  270.22   16.17
   0   4   0  281.89   16.49
   0   4   0  310.70   16.56
   0   4   0  264.64   16.32
   0   4   0  263.81   16.32
   0   4   1  954.71   54.51
   0   4   1  892.66   52.73
   0   4   1  952.66   53.14
   0   4   1  929.83   53.67
   0   4   1  900.38   53.15
   0   4   1  983.47   53.16
   0   4   1 1052.77   53.42
   0   4   1 1022.15   53.39
   0   4   1 1074.91   53.46
   0   4   2  613.42   36.76
   0   4   2  713.42   37.27
   0   4   2  663.68   37.03
   0   4   2  702.73   37.26
   0   4   3   33.71    2.78
   0   4   3   31.99    2.75
   0   4   3   32.82    2.58
   0   4   3   30.85    2.74
   0   4   3   37.95    2.46
   0   4   4  533.24   28.73
   0   4   4  546.54   28.69
   0   4   4  513.45   29.09
   0   4   4  508.75   28.96
   0   4   4  502.48   28.95
   0   4   4  481.26   28.47
   0   4   5   48.10    3.71
   0   4   5   47.98    3.71
   0   4   5   57.47    3.78
   0   4   5   48.28    3.26
   0   4   6    1.05    0.53
   0   4   6    1.41    0.59
   0   4   6    0.36    0.84
   0   4   6    1.52    0.55
   0   4   7   35.89    2.93
   0   4   7   39.50    2.90
   0   4   7   42.69    3.17
   0   4   8  573.89   29.87
   0   4   8  513.93   29.68
   0   4   8  571.79   30.20
   0   4   8  560.73   29.82
   0   4   8  590.93   30.57
   0   4   8  479.15   29.73
   0   4   9    8.69    1.22
   0   4   9    8.15    0.89
   0   4   9    6.61    0.90
   0   4   9   10.10    1.52
   0   4  10    4.19    0.74
   0   4  10    3.95    0.77
   0   4  10    3.47    0.57
   0   4  10    3.87    1.16
   0   4  11   88.47    5.66
   0   4  11   99.59    6.42
   0   4  12    0.45    0.37
   0   4  13   17.88    1.18
   0   5  -8   10.12    1.55
   0   5  -8   12.47    1.46
   0   5  -8    8.67    1.24
   0   5  -8    9.99    0.80
   0   5  -8    8.28    1.45
   0   5  -7   46.89    4.09
   0   5  -7   40.40    5.83
   0   5  -7   40.14    3.85
   0   5  -7   42.47    5.87
   0   5  -7   42.05    3.77
   0   5  -7   49.56    4.27
   0   5  -6    7.67    2.28
   0   5  -6   10.72    1.84
   0   5  -6    6.54    2.85
   0   5  -6    8.54    3.24
   0   5  -6    9.26    1.92
   0   5  -6   10.86    2.20
   0   5  -5   38.66    4.18
   0   5  -5   40.76    4.46
   0   5  -5   48.42    4.36
   0   5  -5   41.30    4.12
   0   5  -5   42.88    6.80
   0   5  -5   39.06    3.91
   0   5  -5   37.90    3.74
   0   5  -5   47.34    4.45
   0   5  -4  112.93    8.77
   0   5  -4  126.98    9.27
   0   5  -4  143.08    9.24
   0   5  -4  136.60    9.08
   0   5  -4  127.91    8.63
   0   5  -4  116.03   11.85
   0   5  -4  111.18    8.26
   0   5  -4  135.26    9.14
   0   5  -3   44.46    2.86
   0   5  -3   40.33    4.15
   0   5  -3   47.44    4.47
   0   5  -3   44.61    6.30
   0   5  -3   44.69    4.14
   0   5  -3   55.67    4.43
   0   5  -3   44.04    6.25
   0   5  -2  129.50   11.07
   0   5  -2  129.68    8.34
   0   5  -2  133.09    8.98
   0   5  -2  142.96    8.43
   0   5  -2  127.95    8.66
   0   5  -2  132.18    8.84
   0   5  -2  132.91    8.66
   0   5  -2  139.14   11.28
   0   5  -2  143.75    8.44
   0   5  -2  147.48    8.83
   0   5  -2  129.97    8.39
   0   5  -2  120.53    8.30
   0   5  -1   24.43    3.89
   0   5  -1   18.76    2.11
   0   5  -1   25.79    3.27
   0   5  -1   23.00    2.32
   0   5  -1   23.65    2.60
   0   5  -1   20.68    2.36
   0   5  -1   26.17    2.73
   0   5  -1   24.02    2.47
   0   5  -1   22.24    3.74
   0   5  -1   19.17    2.36
   0   5  -1   24.67    2.36
   0   5  -1   21.22    2.24
   0   5  -1   20.92    2.23
   0   5  -1   20.25    2.22
   0   5   0    0.15    0.53
   0   5   0    0.14    0.49
   0   5   0   -0.12    1.01
   0   5   0    0.67    0.79
   0   5   0    0.85    0.51
   0   5   0    0.58    0.90
   0   5   0    0.34    1.26
   0   5   0    0.43    0.61
   0   5   0    0.23    0.94
   0   5   0    0.27    0.46
   0   5   0    0.56    0.61
   0   5   0    0.56    0.56
   0   5   1  203.98   12.81
   0   5   1  232.22   13.19
   0   5   1  215.73   12.49
   0   5   1  208.52   12.36
   0   5   1  216.69   12.68
   0   5   1  199.07   13.41
   0   5   1  211.07   12.78
   0   5   1  226.21   13.02
   0   5   1  216.30   13.15
   0   5   1  236.86   13.23
   0   5   1  202.01   12.92
   0   5   1  205.89   12.96
   0   5   1  215.45   12.09
   0   5   2  413.42   24.47
   0   5   2  384.69   24.46
   0   5   2  460.44   25.11
   0   5   2  465.79   25.13
   0   5   2  447.06   24.73
   0   5   2  477.95   25.19
   0   5   2  495.46   25.45
   0   5   2  445.62   24.81
   0   5   2  502.78   25.49
   0   5   2  415.06   24.07
   0   5   2  444.92   25.10
   0   5   3  640.16   35.79
   0   5   3  678.84   35.88
   0   5   3  615.69   35.17
   0   5   3  692.22   36.05
   0   5   3  632.43   35.50
   0   5   3  669.69   36.00
   0   5   3  593.60   35.73
   0   5   3  590.70   35.12
   0   5   4   61.28    4.27
   0   5   4   61.40    4.19
   0   5   4   56.50    4.14
   0   5   4   57.27    4.53
   0   5   4   64.82    4.65
   0   5   4   53.55    4.56
   0   5   5   92.31    5.93
   0   5   5   80.27    5.27
   0   5   5  100.05    5.93
   0   5   5   84.93    6.12
   0   5   5   85.12    6.13
   0   5   6   25.70    1.85
   0   5   6   23.04    1.79
   0   5   6   21.96    1.93
   0   5   6   23.18    2.54
   0   5   6   22.61    2.49
   0   5   6   28.01    2.56
   0   5   7    5.60    0.83
   0   5   7    4.95    0.71
   0   5   7    5.63    1.37
   0   5   7    5.22    0.78
   0   5   7    6.64    0.89
   0   5   7    6.12    0.99
   0   5   8   49.69    4.05
   0   5   8   61.11    3.87
   0   5   8   59.11    3.84
   0   5   8   60.32    3.86
   0   5   8   60.06    4.36
   0   5   9  160.92    9.29
   0   5   9  153.01    9.80
   0   5  10   54.75    3.51
   0   5  10   60.42    3.69
   0   5  10   47.67    4.00
   0   5  11    9.85    1.06
   0   5  11    8.86    0.94
   0   5  12  120.24    6.89
   0   6  -8    7.36    0.55
   0   6  -7    1.46    0.34
   0   6  -7    1.26    0.65
   0   6  -7    2.63    0.99
   0   6  -6    0.14    0.94
   0   6  -6    3.43    1.18
   0   6  -6    0.48    1.58
   0   6  -6    0.64    1.10
   0   6  -5   33.25    3.71
   0   6  -5   36.77    3.65
   0   6  -5   41.17    5.96
   0   6  -5   36.19    5.67
   0   6  -5   38.49    4.83
   0   6  -5   28.48    3.25
   0   6  -5   36.42    3.35
   0   6  -4   77.74    7.40
   0   6  -4   71.62    8.28
   0   6  -4   85.83    5.66
   0   6  -4   70.74    5.70
   0   6  -4   69.14    5.91
   0   6  -4   72.31    6.00
   0   6  -4   84.59    6.02
   0   6  -4   55.95    5.57
   0   6  -4   60.19    5.70
   0   6  -4   78.42    8.61
   0   6  -4   61.56    5.28
   0   6  -3    1.78    1.95
   0   6  -3    0.58    0.32
   0   6  -3   -0.82    1.59
   0   6  -3    0.59    2.12
   0   6  -3    3.89    1.48
   0   6  -3   -0.20    1.43
   0   6  -3    1.80    1.68
   0   6  -3    3.81    1.89
   0   6  -3    0.23    0.68
   0   6  -3    0.51    0.71
   0   6  -2  215.62   15.86
   0   6  -2  209.21   13.27
   0   6  -2  175.37   12.42
   0   6  -2  193.72   12.56
   0   6  -2  191.68   11.36
   0   6  -2  209.74   14.36
   0   6  -2  184.96   12.45
   0   6  -2  211.30   15.84
   0   6  -2  229.37   12.93
   0   6  -2  235.87   12.58
   0   6  -2  204.30   12.97
   0   6  -2  208.26   12.73
   0   6  -2  192.64   12.75
   0   6  -2  207.43   13.27
   0   6  -1  320.79   18.35
   0   6  -1  331.70   19.65
   0   6  -1  326.29   20.87
   0   6  -1  324.74   19.54
   0   6  -1  377.44   19.36
   0   6  -1  338.85   19.58
   0   6  -1  347.27   19.59
   0   6  -1  306.40   19.62
   0   6  -1  300.05   19.59
   0   6  -1  337.83   20.16
   0   6  -1  340.14   22.39
   0   6  -1  353.74   20.15
   0   6  -1  322.98   18.38
   0   6   0    1.41    0.42
   0   6   0    1.72    0.77
   0   6   0    0.76    0.65
   0   6   0    0.92    0.88
   0   6   0    0.64    0.50
   0   6   0    0.43    0.89
   0   6   0    0.79    0.95
   0   6   0    1.60    0.78
   0   6   0    0.19    0.62
   0   6   0    2.29    0.56
   0   6   0    1.23    1.75
   0   6   0    0.37    0.55
   0   6   0    0.56    0.58
   0   6   1    1.85    0.80
   0   6   1    2.40    0.90
   0   6   1    2.41    0.86
   0   6   1    1.84    0.55
   0   6   1    1.84    0.90
   0   6   1    0.46    0.83
   0   6   1    1.60    0.83
   0   6   1    2.14    0.89
   0   6   1    2.29    0.51
   0   6   1    1.17    0.66
   0   6   1    2.34    0.86
   0   6   1    1.81    0.99
   0   6   2    0.87    0.44
   0   6   2    0.64    0.78
   0   6   2    0.18    0.70
   0   6   2    0.21    0.65
   0   6   2    0.88    0.55
   0   6   2    0.55    0.63
   0   6   2    0.74    0.64
   0   6   2    0.92    0.66
   0   6   3   95.53    6.35
   0   6   3   86.55    5.76
   0   6   3   80.53    5.78
   0   6   4   97.53    6.50
   0   6   4   94.77    7.02
   0   6   4   97.58    7.08
   0   6   4   92.93    6.57
   0   6   4   97.34    7.14
   0   6   4   98.77    6.42
   0   6   5    0.14    0.86
   0   6   5    0.82    0.57
   0   6   5    0.33    0.33
   0   6   5    0.21    0.57
   0   6   5    0.78    0.38
   0   6   5    1.07    0.50
   0   6   5    0.78    0.45
   0   6   5    2.08    0.85
   0   6   5    0.52    0.78
   0   6   6    8.02    1.52
   0   6   6    6.63    0.83
   0   6   6    6.77    0.88
   0   6   6    6.82    0.91
   0   6   6    6.74    0.90
   0   6   6    7.09    1.22
   0   6   6    8.20    0.93
   0   6   6    6.10    1.38
   0   6   6    8.26    1.63
   0   6   7   85.68    6.15
   0   6   7   80.72    5.21
   0   6   7   81.64    5.17
   0   6   7   82.09    5.22
   0   6   7   89.60    5.51
   0   6   7   82.91    5.17
   0   6   8   13.53    1.35
   0   6   8   12.39    1.30
   0   6   8   12.65    1.23
   0   6   8   11.13    1.30
   0   6   8   12.68    1.63
   0   6   9  131.02    7.68
   0   6   9  138.48    7.79
   0   6   9  132.08    7.69
   0   6   9  108.53    7.96
   0   6  10   13.68    1.29
   0   6  10   14.40    1.39
   0   6  10   15.51    1.43
   0   6  10   16.48    1.70
   0   6  11    0.96    0.77
   0   6  11    1.22    0.46
   0   6  12   14.87    1.25
   0   7  -7    4.14    0.35
   0   7  -6    0.89    0.62
   0   7  -6    0.56    0.28
   0   7  -5    2.31    0.82
   0   7  -5    2.02    0.96
   0   7  -4    1.47    1.76
   0   7  -4    0.84    1.17
   0   7  -4    2.20    1.31
   0   7  -4    1.75    0.96
   0   7  -3    0.53    1.66
   0   7  -3    2.30    0.64
   0   7  -3    2.19    1.33
   0   7  -3    1.34    0.42
   0   7  -3    2.74    1.33
   0   7  -3    1.95    0.99
   0   7  -2  285.21   15.87
   0   7  -2  256.66   16.86
   0   7  -2  270.91   16.21
   0   7  -2  256.48   14.90
   0   7  -2  257.31   16.97
   0   7  -2  271.78   15.16
   0   7  -2  245.01   18.82
   0   7  -2  257.55   17.47
   0   7  -1  691.74   39.34
   0   7  -1  651.40   40.09
   0   7  -1  714.57   38.59
   0   7  -1  713.87   39.81
   0   7  -1  678.91   37.75
   0   7  -1  709.25   38.98
   0   7  -1  688.32   37.74
   0   7  -1  715.66   39.99
   0   7  -1  695.73   37.88
   0   7  -1  633.99   39.22
   0   7  -1  610.88   39.15
   0   7   0  414.79   22.95
   0   7   0  435.04   24.71
   0   7   0  343.33   24.66
   0   7   0  394.68   23.61
   0   7   0  423.12   23.22
   0   7   0  419.56   24.07
   0   7   0  431.00   25.20
   0   7   0  393.54   24.55
   0   7   0  429.06   23.02
   0   7   0  397.85   24.60
   0   7   0  396.35   24.60
   0   7   1  313.63   17.95
   0   7   1  318.55   19.63
   0   7   1  305.15   18.56
   0   7   1  329.71   18.72
   0   7   1  329.09   18.16
   0   7   1  325.48   18.98
   0   7   1  317.50   17.96
   0   7   1  338.77   20.03
   0   7   1  298.21   19.32
   0   7   1  330.36   18.06
   0   7   1  319.01   19.67
   0   7   1  320.29   19.68
   0   7   2  288.68   15.43
   0   7   2  217.88   13.81
   0   7   2  215.94   14.25
   0   7   2  238.52   13.27
   0   7   2  232.62   14.13
   0   7   2  231.81   14.90
   0   7   2  237.12   13.20
   0   7   2  225.32   13.18
   0   7   2  226.75   14.85
   0   7   2  230.53   14.88
   0   7   3   84.86    5.32
   0   7   3   89.64    5.33
   0   7   3   85.66    6.66
   0   7   3   99.13    7.12
   0   7   3   87.49    6.02
   0   7   4    0.56    0.42
   0   7   4    3.59    1.01
   0   7   4    1.15    0.69
   0   7   4    2.28    1.05
   0   7   4    1.30    0.47
   0   7   4    1.59    0.51
   0   7   4    1.04    1.01
   0   7   4    1.68    0.55
   0   7   4    1.01    0.75
   0   7   4    1.26    0.74
   0   7   5  140.68    8.41
   0   7   5  128.66    7.52
   0   7   5  127.52    8.39
   0   7   5  134.48    7.51
   0   7   5  120.96    7.45
   0   7   5  119.97    7.61
   0   7   5  133.70    7.54
   0   7   5  115.53    7.33
   0   7   5  117.03    8.98
   0   7   5  123.82    9.08
   0   7   6    6.12    0.89
   0   7   6    6.16    1.19
   0   7   6    6.77    0.88
   0   7   6    5.19    0.87
   0   7   6    5.93    0.85
   0   7   6    5.43    0.84
   0   7   6    6.35    1.57
   0   7   6    4.86    1.36
   0   7   6    6.06    1.47
   0   7   7  372.28   20.48
   0   7   7  350.78   20.47
   0   7   7  354.95   20.39
   0   7   7  379.09   20.52
   0   7   7  373.38   20.71
   0   7   7  347.46   20.36
   0   7   7  390.51   21.65
   0   7   8  413.43   22.71
   0   7   8  418.13   22.82
   0   7   8  348.82   22.92
   0   7   8  422.22   22.83
   0   7   8  408.26   22.70
   0   7   8  398.11   22.75
   0   7   8  427.02   23.01
   0   7   9  306.93   17.27
   0   7   9  297.16   17.20
   0   7   9  315.21   17.51
   0   7  10   30.20    2.22
   0   7  10   30.65    2.25
   0   7  10   35.07    2.36
   0   7  10   34.57    2.54
   0   7  11    1.58    0.68
   0   7  11    0.93    0.40
   0   7  12   27.58    1.78
   0   7  12   26.41    1.73
   0   8  -4  187.44   10.30
   0   8  -4  169.01   10.88
   0   8  -3    1.66    0.46
   0   8  -3   -0.28    0.73
   0   8  -3    1.02    0.69
   0   8  -3    0.72    0.35
   0   8  -3    1.23    0.80
   0   8  -2    0.70    0.45
   0   8  -2   -0.56    0.79
   0   8  -2    0.23    0.68
   0   8  -2    0.16    0.34
   0   8  -2    0.16    0.91
   0   8  -1   16.50    2.14
   0   8  -1   14.99    1.84
   0   8  -1   12.74    1.77
   0   8  -1   16.89    1.36
   0   8  -1   15.57    1.37
   0   8  -1   14.47    1.33
   0   8   0   -0.24    0.61
   0   8   0    0.30    0.83
   0   8   0    0.99    0.93
   0   8   0    0.66    0.82
   0   8   0   -0.16    0.36
   0   8   0    0.05    0.36
   0   8   0    0.50    0.45
   0   8   0    0.25    0.58
   0   8   0    0.07    0.42
   0   8   0    0.25    0.52
   0   8   1    2.08    1.05
   0   8   1    1.07    0.98
   0   8   1    0.59    0.75
   0   8   1    0.99    1.06
   0   8   1    0.50    0.47
   0   8   1    0.82    0.38
   0   8   1    1.28    0.47
   0   8   1    1.35    0.56
   0   8   1    0.54    0.74
   0   8   1    0.54    0.79
   0   8   2  319.08   19.34
   0   8   2  348.76   18.80
   0   8   2  326.28   20.65
   0   8   2  323.31   20.57
   0   8   2  332.26   18.69
   0   8   2  328.49   20.71
   0   8   2  313.72   20.57
   0   8   3  137.02    8.11
   0   8   3  143.81    8.97
   0   8   3  137.34    8.30
   0   8   3  138.38    8.22
   0   8   3  131.42    9.76
   0   8   3  147.90    8.24
   0   8   3  139.07   10.05
   0   8   3  125.41    9.87
   0   8   4  160.23    9.45
   0   8   4  145.77    8.57
   0   8   4  158.60    9.56
   0   8   4  136.17    8.39
   0   8   4  147.81    8.47
   0   8   4  137.61   10.34
   0   8   4  136.44   10.34
   0   8   4  135.98    8.38
   0   8   5    0.74    0.40
   0   8   5   -0.34    0.91
   0   8   5   -0.07    0.42
   0   8   5    0.65    0.50
   0   8   5   -0.29    0.67
   0   8   5    1.16    0.95
   0   8   5    0.08    0.45
   0   8   5   -0.30    0.85
   0   8   6   -0.17    1.05
   0   8   6    1.70    0.59
   0   8   6    1.42    0.56
   0   8   6    0.97    0.54
   0   8   6    1.73    0.61
   0   8   6    1.11    0.87
   0   8   6    2.08    0.59
   0   8   6    1.96    1.01
   0   8   6    1.64    0.44
   0   8   7    0.22    0.45
   0   8   7    1.28    0.64
   0   8   7    0.07    0.51
   0   8   7   -0.42    0.53
   0   8   7   -0.52    0.85
   0   8   7    0.17    0.94
   0   8   7   -0.07    0.42
   0   8   8    6.85    0.99
   0   8   8    6.12    0.89
   0   8   8    6.09    1.13
   0   8   8    7.58    0.97
   0   8   8    5.90    0.93
   0   8   9    5.08    0.81
   0   8   9    5.51    1.02
   0   8   9    7.43    0.94
   0   8   9    5.59    0.82
   0   8  10    0.87    0.48
   0   8  10   -0.11    0.67
   0   8  11   11.23    0.94
   0   9  -4   29.05    1.73
   0   9  -3   25.17    1.65
   0   9  -2    7.45    0.71
   0   9  -2    6.40    0.69
   0   9  -1   11.48    1.11
   0   9  -1   14.67    1.77
   0   9  -1   17.10    1.22
   0   9  -1   14.43    1.54
   0   9  -1   15.56    1.26
   0   9   0    3.81    1.05
   0   9   0    4.02    0.57
   0   9   0    4.40    0.70
   0   9   0    4.23    1.01
   0   9   0    4.49    0.69
   0   9   1  160.14    9.31
   0   9   1  151.67    9.72
   0   9   1  156.70    9.23
   0   9   1  163.12    9.17
   0   9   2  137.85    7.99
   0   9   2  136.24    8.58
   0   9   2  132.74    8.09
   0   9   3   22.53    1.84
   0   9   3   22.08    1.75
   0   9   3   16.15    2.20
   0   9   3   20.47    2.23
   0   9   3   21.52    1.76
   0   9   4   44.28    2.91
   0   9   4   38.48    3.53
   0   9   4   45.02    3.50
   0   9   4   37.71    2.79
   0   9   5   41.14    3.54
   0   9   5   40.49    2.86
   0   9   5   35.51    2.64
   0   9   5   42.14    2.81
   0   9   6   41.73    2.95
   0   9   6   41.89    2.96
   0   9   6   42.50    3.62
   0   9   7   18.25    1.56
   0   9   7   16.87    1.41
   0   9   7   15.68    1.45
   0   9   7   18.04    2.10
   0   9   8   20.56    1.62
   0   9   8   21.11    1.66
   0   9   8   18.92    1.54
   0   9   9   19.95    1.48
   0   9   9   18.36    1.41
   0   9  10    2.00    0.36
   0  10  -1    0.78    0.26
   0  10   0    1.87    0.36
   0  10   0    2.88    0.46
   0  10   0    2.00    0.67
   0  10   1   50.61    3.16
   0  10   1   58.23    3.37
   0  10   1   51.34    3.33
   0  10   1   54.59    3.77
   0  10   2   10.63    1.43
   0  10   2   10.31    0.98
   0  10   2   10.78    1.09
   0  10   2   11.90    1.31
   0  10   3    0.20    0.41
   0  10   3    0.24    0.44
   0  10   3    0.43    0.68
   0  10   3    0.10    0.37
   0  10   4    3.14    0.60
   0  10   4    3.35    0.67
   0  10   4    2.86    0.89
   0  10   4    2.11    0.52
   0  10   5   38.28    2.57
   0  10   5   38.62    2.65
   0  10   5   34.46    3.00
   0  10   6    1.94    0.80
   0  10   6    1.30    0.47
   0  10   6    1.47    0.48
   0  10   7    3.04    0.56
   0  10   8    0.04    0.31
   0  10   8    0.14    0.30
   0  11   1   59.36    3.39
   0  11   3   18.74    1.29
   0  11   3   16.81    1.16
   0  11   3   17.96    1.20
   0  11   3   18.63    1.24
   0  11   4   -0.03    0.27
   0  11   4    0.23    0.23
   0  11   4    0.03    0.24
   0  11   5    7.56    0.69
   0  11   5    7.95    0.68
   0  11   5    6.59    0.70
   0  11   6    4.26    0.48
   0  11   6    4.29    0.47
   0  11   7   18.88    1.22
   1 -11  -5   17.98    1.65
   1 -11  -4    0.93    0.76
   1 -11  -3    0.30    0.61
   1 -11  -2   40.67    2.82
   1 -10  -8    3.04    0.75
   1 -10  -7    0.45    0.64
   1 -10  -7   -0.23    0.90
   1 -10  -6   85.02    5.33
   1 -10  -6   70.40    4.95
   1 -10  -6   72.79    4.96
   1 -10  -6   80.65    5.35
   1 -10  -6   73.98    5.52
   1 -10  -5    3.53    1.04
   1 -10  -5    3.84    1.11
   1 -10  -5   11.00    1.65
   1 -10  -5    8.58    1.48
   1 -10  -5    5.83    1.92
   1 -10  -4    3.73    0.92
   1 -10  -4    3.17    0.98
   1 -10  -4    1.98    1.39
   1 -10  -4    4.68    1.22
   1 -10  -4    2.14    1.94
   1 -10  -3   33.71    3.28
   1 -10  -3   27.83    2.59
   1 -10  -3   32.90    2.47
   1 -10  -3   31.01    3.62
   1 -10  -2   95.45    6.19
   1 -10  -2   98.67    6.02
   1 -10  -2   97.63    6.72
   1 -10  -2   99.54    6.47
   1 -10  -2   79.24    6.80
   1 -10  -1   18.75    1.81
   1 -10  -1   19.91    1.78
   1 -10  -1   17.50    2.20
   1 -10  -1   15.77    1.89
   1 -10  -1   20.65    3.09
   1 -10   0   28.90    3.35
   1 -10   0   30.77    2.34
   1 -10   0   27.86    2.88
   1 -10   1    0.18    0.80
   1 -10   1    2.06    1.69
   1  -9  -9    0.20    0.77
   1  -9  -8   12.85    3.31
   1  -9  -8    9.16    1.25
   1  -9  -8   11.64    1.57
   1  -9  -7   54.41    3.91
   1  -9  -7   61.22    4.40
   1  -9  -7   54.43    4.21
   1  -9  -7   58.03    4.00
   1  -9  -7   55.83    3.94
   1  -9  -6  155.17    9.77
   1  -9  -6  161.15   13.48
   1  -9  -6  182.50   10.38
   1  -9  -6  152.69   12.90
   1  -9  -6  156.92    9.81
   1  -9  -6  160.61    9.85
   1  -9  -5    1.35    0.85
   1  -9  -5    3.75    2.08
   1  -9  -5    1.34    0.97
   1  -9  -5    1.63    0.85
   1  -9  -5    1.53    0.92
   1  -9  -5    3.14    1.02
   1  -9  -4  180.01   11.26
   1  -9  -4  166.39   14.23
   1  -9  -4  206.97   18.35
   1  -9  -4  160.84   13.82
   1  -9  -4  159.30   14.20
   1  -9  -4  213.48   11.83
   1  -9  -4  181.38   11.31
   1  -9  -4  191.71   11.38
   1  -9  -4  194.78   11.55
   1  -9  -3   -0.46    1.52
   1  -9  -3   -0.45    1.15
   1  -9  -3   -0.30    0.86
   1  -9  -3   -0.74    0.88
   1  -9  -3    0.65    0.86
   1  -9  -3    0.77    0.85
   1  -9  -3   -1.02    1.49
   1  -9  -2    0.86    0.86
   1  -9  -2    1.52    1.41
   1  -9  -2    3.12    1.15
   1  -9  -2    0.64    0.87
   1  -9  -2    2.12    0.98
   1  -9  -2    1.41    1.69
   1  -9  -1    4.18    1.07
   1  -9  -1    6.16    1.34
   1  -9  -1    2.44    2.74
   1  -9  -1    3.53    1.66
   1  -9  -1    3.71    1.09
   1  -9  -1    4.05    1.02
   1  -9   0   -0.66    0.83
   1  -9   0    1.09    2.64
   1  -9   0   -0.67    0.90
   1  -9   1   10.56    2.92
   1  -9   2   15.53    2.10
   1  -9   2   15.85    1.64
   1  -9   2   13.79    1.38
   1  -9   2   17.15    2.22
   1  -9   3   42.41    3.92
   1  -9   4    6.90    0.58
   1  -8  -9    0.66    1.80
   1  -8  -9    0.24    0.75
   1  -8  -8   10.99    1.37
   1  -8  -8   11.46    1.62
   1  -8  -8    7.93    2.68
   1  -8  -8    9.20    2.98
   1  -8  -7    6.30    1.12
   1  -8  -7    8.47    1.26
   1  -8  -7    6.30    1.13
   1  -8  -7    6.94    1.39
   1  -8  -7    6.14    2.35
   1  -8  -7    6.36    2.23
   1  -8  -7    6.24    2.59
   1  -8  -6    2.39    2.48
   1  -8  -6    2.39    2.19
   1  -8  -6    2.52    0.88
   1  -8  -6    2.53    0.93
   1  -8  -6    1.48    0.80
   1  -8  -6    0.58    0.82
   1  -8  -6    1.42    1.81
   1  -8  -6    0.51    1.68
   1  -8  -6    2.22    1.79
   1  -8  -6    3.74    1.60
   1  -8  -5   70.53    9.54
   1  -8  -5   72.05    9.47
   1  -8  -5   92.05    5.71
   1  -8  -5   83.70    5.63
   1  -8  -5   82.76    5.59
   1  -8  -5   89.99    6.01
   1  -8  -5   80.21    8.07
   1  -8  -5   81.41    9.43
   1  -8  -5   62.67    9.48
   1  -8  -5   76.94    8.20
   1  -8  -5   82.89    8.10
   1  -8  -5   77.73    8.56
   1  -8  -5   81.50    7.71
   1  -8  -4    0.73    1.85
   1  -8  -4   -0.23    0.73
   1  -8  -4    0.12    0.79
   1  -8  -4    0.89    0.87
   1  -8  -4   -0.58    0.96
   1  -8  -4    0.45    1.14
   1  -8  -4    1.27    1.87
   1  -8  -4    0.82    2.24
   1  -8  -4   -0.51    1.18
   1  -8  -4    0.41    1.36
   1  -8  -4    0.46    1.64
   1  -8  -3    5.60    0.93
   1  -8  -3    6.81    1.27
   1  -8  -3    6.21    1.20
   1  -8  -3    9.57    1.58
   1  -8  -3    6.23    2.14
   1  -8  -3    6.50    2.55
   1  -8  -3    3.78    1.93
   1  -8  -3    4.26    1.85
   1  -8  -3    4.96    2.08
   1  -8  -2   29.10    2.44
   1  -8  -2   33.04    2.86
   1  -8  -2   33.58    2.84
   1  -8  -2   30.82    2.78
   1  -8  -2   25.47    4.65
   1  -8  -2   32.61    6.49
   1  -8  -2   30.61    4.45
   1  -8  -2   27.54    4.42
   1  -8  -2   34.91    4.92
   1  -8  -1  105.81   10.11
   1  -8  -1   97.12    9.74
   1  -8  -1  126.78    7.85
   1  -8  -1  109.42    7.59
   1  -8  -1  123.82    7.84
   1  -8  -1  133.11    7.86
   1  -8  -1  123.20   10.63
   1  -8  -1  162.02    8.46
   1  -8  -1   99.29    9.90
   1  -8  -1  100.62   10.37
   1  -8  -1  115.76    8.77
   1  -8   0    2.56    0.95
   1  -8   0    2.83    1.63
   1  -8   0    2.54    1.56
   1  -8   0    3.44    1.16
   1  -8   0    3.68    1.01
   1  -8   0    1.64    0.78
   1  -8   1   57.97    6.06
   1  -8   1   53.94    6.46
   1  -8   1   72.88    4.80
   1  -8   1   58.02    4.34
   1  -8   1   64.88    4.54
   1  -8   2    2.13    0.79
   1  -8   2    4.02    1.03
   1  -8   2    1.70    1.48
   1  -8   3   29.95    3.27
   1  -8   3   32.71    2.61
   1  -8   3   33.50    4.28
   1  -8   3   32.52    2.69
   1  -8   3   27.90    3.21
   1  -8   4   11.02    2.67
   1  -8   4    7.81    1.11
   1  -8   4    9.55    1.20
   1  -8   5    6.55    0.68
   1  -8   5    6.25    0.97
   1  -7 -10    7.64    2.91
   1  -7  -9    0.84    0.85
   1  -7  -9    2.07    2.02
   1  -7  -9    2.31    1.89
   1  -7  -8    8.74    1.16
   1  -7  -8    4.88    2.95
   1  -7  -8    5.33    2.39
   1  -7  -8    2.10    3.64
   1  -7  -8    7.51    2.71
   1  -7  -7  155.63    9.35
   1  -7  -7  161.94    9.35
   1  -7  -7  155.31    9.30
   1  -7  -7  128.18   13.96
   1  -7  -7  154.10   12.51
   1  -7  -7  145.90   11.70
   1  -7  -7  145.20   12.77
   1  -7  -7  122.32   15.34
   1  -7  -6   32.08    2.60
   1  -7  -6   34.31    2.61
   1  -7  -6   18.34    5.11
   1  -7  -6   29.56    5.82
   1  -7  -6   33.76    4.08
   1  -7  -6   22.32    6.10
   1  -7  -6   24.88    4.18
   1  -7  -6   31.70    4.33
   1  -7  -6   33.61    2.92
   1  -7  -6   26.32    3.99
   1  -7  -5   12.86    1.67
   1  -7  -5   12.21    2.61
   1  -7  -5   13.33    2.57
   1  -7  -5   11.79    4.82
   1  -7  -5   11.92    4.01
   1  -7  -5   11.13    3.44
   1  -7  -5   12.65    2.79
   1  -7  -5   11.32    2.51
   1  -7  -5   14.33    1.54
   1  -7  -5    9.66    1.06
   1  -7  -4  222.69   14.09
   1  -7  -4  192.15   11.20
   1  -7  -4  201.19   14.09
   1  -7  -4  188.82   11.23
   1  -7  -4  244.54   17.07
   1  -7  -4  176.04   16.54
   1  -7  -4  198.77   11.33
   1  -7  -4  215.69   14.37
   1  -7  -4  177.40   16.04
   1  -7  -4  177.27   16.04
   1  -7  -3    0.34    1.07
   1  -7  -3   -0.13    0.46
   1  -7  -3    0.36    0.98
   1  -7  -3   -0.58    1.72
   1  -7  -3    0.72    2.11
   1  -7  -3    0.64    1.49
   1  -7  -3    1.28    2.20
   1  -7  -3   -0.30    0.61
   1  -7  -3    0.83    1.29
   1  -7  -3    1.13    1.24
   1  -7  -3    0.27    0.49
   1  -7  -2   20.27    3.20
   1  -7  -2   14.22    1.42
   1  -7  -2   13.80    1.36
   1  -7  -2   13.57    3.37
   1  -7  -2   11.22    3.44
   1  -7  -2   13.63    3.66
   1  -7  -2   10.62    3.33
   1  -7  -2   13.41    1.45
   1  -7  -2   13.98    2.94
   1  -7  -2   14.68    3.04
   1  -7  -1    7.86    2.28
   1  -7  -1    7.50    1.10
   1  -7  -1    8.78    1.08
   1  -7  -1    9.77    1.37
   1  -7  -1    9.16    1.34
   1  -7  -1    8.29    1.28
   1  -7  -1    8.76    2.35
   1  -7  -1    6.77    2.52
   1  -7  -1    8.79    2.95
   1  -7  -1    8.14    2.57
   1  -7  -1    5.63    2.36
   1  -7  -1    6.16    2.16
   1  -7  -1    9.94    2.62
   1  -7   0    1.24    1.55
   1  -7   0   -0.83    1.19
   1  -7   0   -0.34    0.54
   1  -7   0   -1.18    0.82
   1  -7   0   -0.32    0.71
   1  -7   0   -0.62    0.79
   1  -7   0    0.25    0.74
   1  -7   0    0.38    1.05
   1  -7   0   -0.51    1.30
   1  -7   0   -0.37    1.01
   1  -7   0   -0.40    1.17
   1  -7   0   -0.91    1.45
   1  -7   1    2.54    1.28
   1  -7   1    2.58    1.55
   1  -7   1    1.37    0.81
   1  -7   1    3.06    1.44
   1  -7   1    4.28    0.96
   1  -7   1    2.29    0.82
   1  -7   1    1.59    0.64
   1  -7   1    1.90    0.79
   1  -7   2    0.86    1.10
   1  -7   2    1.05    1.36
   1  -7   2    1.71    0.68
   1  -7   2    1.38    0.73
   1  -7   2    2.71    0.89
   1  -7   3   41.86    3.13
   1  -7   3   45.57    3.46
   1  -7   3   37.06    4.98
   1  -7   3   40.16    4.83
   1  -7   3   33.00    4.12
   1  -7   3   41.80    4.20
   1  -7   4    0.99    1.47
   1  -7   4    1.22    0.78
   1  -7   4    1.01    1.25
   1  -7   4    0.66    0.65
   1  -7   4    0.19    0.57
   1  -7   4    0.25    2.72
   1  -7   5    1.26    0.70
   1  -7   5    1.92    1.22
   1  -7   5    1.15    0.60
   1  -7   5    0.19    2.29
   1  -7   6   92.63    6.08
   1  -7   6   99.93    6.30
   1  -7   6  103.81    5.86
   1  -6 -11    6.76    1.41
   1  -6 -10    1.30    1.78
   1  -6  -9   60.66    7.56
   1  -6  -9   55.41    6.72
   1  -6  -9   38.05    7.63
   1  -6  -8  597.15   36.98
   1  -6  -8  599.39   40.33
   1  -6  -8  661.82   38.48
   1  -6  -8  534.74   40.79
   1  -6  -7   45.90    3.17
   1  -6  -7   36.59    6.58
   1  -6  -7   36.49    7.54
   1  -6  -7   43.21    5.73
   1  -6  -7   53.91    5.77
   1  -6  -7   39.16    4.66
   1  -6  -6   59.36    8.21
   1  -6  -6   45.94    8.17
   1  -6  -6   56.40    5.58
   1  -6  -6   55.27    5.89
   1  -6  -6   84.30    4.90
   1  -6  -6   71.98    6.80
   1  -6  -6   61.15    6.11
   1  -6  -5   -0.62    2.14
   1  -6  -5   -0.26    0.90
   1  -6  -5    2.40    2.99
   1  -6  -5    0.60    0.82
   1  -6  -5    0.11    0.37
   1  -6  -5   -0.31    0.91
   1  -6  -4  111.20    8.19
   1  -6  -4   93.37   11.06
   1  -6  -4  107.38    6.26
   1  -6  -4  105.56    6.23
   1  -6  -4  109.64    8.32
   1  -6  -4  111.45   10.44
   1  -6  -4   87.16   10.00
   1  -6  -4   83.40    9.16
   1  -6  -4  107.54    6.34
   1  -6  -4  113.97    8.54
   1  -6  -3   38.88    6.26
   1  -6  -3   32.35    3.57
   1  -6  -3   25.84    1.93
   1  -6  -3   25.36    1.90
   1  -6  -3   25.78    1.83
   1  -6  -3   27.06    3.35
   1  -6  -3   31.56    4.83
   1  -6  -3   25.77    4.73
   1  -6  -3   20.63    3.72
   1  -6  -3   32.10    3.71
   1  -6  -3   27.79    2.00
   1  -6  -2  143.55    9.69
   1  -6  -2  125.27   12.41
   1  -6  -2  131.24    7.65
   1  -6  -2  133.87    7.63
   1  -6  -2  129.41    7.55
   1  -6  -2  126.71    7.67
   1  -6  -2  149.97   11.52
   1  -6  -2  123.66   11.56
   1  -6  -2  118.16   11.00
   1  -6  -2  110.06   10.84
   1  -6  -2  137.67    9.65
   1  -6  -1    1.29    0.81
   1  -6  -1    0.24    0.39
   1  -6  -1    0.83    0.44
   1  -6  -1    0.20    0.36
   1  -6  -1   -0.06    0.43
   1  -6  -1   -0.30    0.99
   1  -6  -1   -0.45    1.24
   1  -6  -1    0.55    1.50
   1  -6  -1    0.49    1.77
   1  -6  -1   -0.49    1.97
   1  -6  -1    0.28    0.97
   1  -6   0   30.07    3.80
   1  -6   0   26.71    2.10
   1  -6   0   23.93    2.04
   1  -6   0   32.01    2.37
   1  -6   0   30.05    2.32
   1  -6   0   30.84    2.31
   1  -6   0   32.52    3.31
   1  -6   0   24.19    3.33
   1  -6   0   28.94    3.72
   1  -6   0   27.93    4.22
   1  -6   0   27.11    4.53
   1  -6   0   27.53    3.53
   1  -6   0   25.67    4.11
   1  -6   0   25.84    4.23
   1  -6   1   19.15    3.20
   1  -6   1   19.33    3.27
   1  -6   1   21.42    1.93
   1  -6   1   22.10    1.96
   1  -6   1   20.64    1.87
   1  -6   1   19.33    2.81
   1  -6   1   21.28    2.95
   1  -6   1   20.73    3.20
   1  -6   1   15.77    3.45
   1  -6   1   24.35    3.98
   1  -6   1   24.05    3.45
   1  -6   1   19.19    2.88
   1  -6   2  115.52    7.35
   1  -6   2  128.42    7.47
   1  -6   2  110.89    7.31
   1  -6   2  115.79    9.12
   1  -6   2  112.38    9.63
   1  -6   2  113.52    7.29
   1  -6   2  104.15    8.92
   1  -6   2  145.79    7.70
   1  -6   3    6.74    1.91
   1  -6   3    5.48    1.88
   1  -6   3    4.50    1.71
   1  -6   3    2.75    2.88
   1  -6   3    5.25    0.97
   1  -6   4    1.95    3.17
   1  -6   4    2.44    1.85
   1  -6   4    1.67    1.51
   1  -6   4    0.37    1.10
   1  -6   4    1.32    0.81
   1  -6   4    1.23    0.72
   1  -6   5    1.52    2.69
   1  -6   5   -0.40    1.39
   1  -6   5   -0.11    0.67
   1  -6   5    0.41    0.62
   1  -6   6    1.21    0.67
   1  -6   6    2.27    2.38
   1  -6   6    0.64    1.10
   1  -6   7   54.86    3.99
   1  -6   7   59.49    3.54
   1  -6   7   51.47    3.80
   1  -6   7   56.71    3.38
   1  -6   8   11.26    0.77
   1  -5 -10   25.10    4.69
   1  -5  -9    0.79    2.60
   1  -5  -9    0.58    1.35
   1  -5  -8  168.81   12.38
   1  -5  -8  146.79   14.46
   1  -5  -8  159.10   14.23
   1  -5  -8  154.50   12.11
   1  -5  -7  145.14   13.29
   1  -5  -7  109.29   11.51
   1  -5  -7  123.18   10.24
   1  -5  -7  114.98    9.50
   1  -5  -7  122.97   10.25
   1  -5  -6   90.44    7.78
   1  -5  -6   59.83    6.18
   1  -5  -6   88.65   11.02
   1  -5  -6  116.02   10.85
   1  -5  -6  106.10    9.82
   1  -5  -6   99.49    8.00
   1  -5  -6   81.69    6.73
   1  -5  -6   88.28    6.49
   1  -5  -5   98.71    7.49
   1  -5  -5   77.83    6.37
   1  -5  -5   88.97    6.40
   1  -5  -5   82.53    8.57
   1  -5  -5   96.19    7.43
   1  -5  -5   79.32    4.88
   1  -5  -5   85.99   10.41
   1  -5  -4   13.30    3.80
   1  -5  -4   21.85    2.45
   1  -5  -4   16.69    1.27
   1  -5  -4   18.33    2.72
   1  -5  -4   17.02    2.32
   1  -5  -4   15.32    2.57
   1  -5  -4   16.36    3.44
   1  -5  -4   16.19    4.86
   1  -5  -4   17.13    1.33
   1  -5  -3   78.64    5.73
   1  -5  -3   51.46    7.13
   1  -5  -3   75.01    4.32
   1  -5  -3   68.16    5.74
   1  -5  -3   71.19    4.23
   1  -5  -3   72.83    5.70
   1  -5  -3   64.24    6.95
   1  -5  -3   66.89    5.72
   1  -5  -3   64.93    6.60
   1  -5  -3   74.94    4.36
   1  -5  -2  219.61   15.96
   1  -5  -2  222.78   17.74
   1  -5  -2  260.67   15.22
   1  -5  -2  240.04   13.64
   1  -5  -2  241.18   13.62
   1  -5  -2  238.18   13.57
   1  -5  -2  264.95   15.24
   1  -5  -2  284.81   17.24
   1  -5  -2  212.23   17.03
   1  -5  -2  278.86   15.32
   1  -5  -2  247.12   13.68
   1  -5  -2  230.50   14.28
   1  -5  -2  273.54   15.27
   1  -5  -1  180.68   13.30
   1  -5  -1  206.39   11.52
   1  -5  -1  204.81   11.48
   1  -5  -1  205.54   11.44
   1  -5  -1  206.45   11.52
   1  -5  -1  201.93   12.40
   1  -5  -1  252.27   15.08
   1  -5  -1  197.30   15.01
   1  -5  -1  180.40   14.39
   1  -5  -1  198.81   12.69
   1  -5  -1  185.21   14.40
   1  -5  -1  192.55   12.67
   1  -5  -1  222.08   16.20
   1  -5   0    5.83    1.20
   1  -5   0    4.43    2.45
   1  -5   0    3.96    1.34
   1  -5   0    6.65    0.75
   1  -5   0    5.38    0.67
   1  -5   0    4.94    0.65
   1  -5   0    6.64    1.55
   1  -5   0    4.38    1.68
   1  -5   0    8.09    2.40
   1  -5   0    5.53    1.38
   1  -5   0    5.96    2.04
   1  -5   0    4.80    2.14
   1  -5   1   83.00    7.61
   1  -5   1   76.04    7.46
   1  -5   1   84.53    5.22
   1  -5   1   91.51    5.24
   1  -5   1   79.00    5.04
   1  -5   1   82.26    5.13
   1  -5   1   88.43    6.72
   1  -5   1   91.09    6.46
   1  -5   1   83.25    7.70
   1  -5   1   81.90    7.92
   1  -5   1   79.84    6.39
   1  -5   1   96.97    6.99
   1  -5   2    3.54    1.30
   1  -5   2    2.84    1.29
   1  -5   2    1.94    0.60
   1  -5   2    3.66    0.71
   1  -5   2    1.96    0.61
   1  -5   2    2.03    0.61
   1  -5   2    2.95    0.59
   1  -5   2    0.74    1.28
   1  -5   2    2.26    1.03
   1  -5   2    2.46    1.32
   1  -5   2    0.62    1.03
   1  -5   2    2.48    1.13
   1  -5   3    3.39    1.17
   1  -5   3    4.45    1.60
   1  -5   3    4.93    0.85
   1  -5   3    2.93    1.45
   1  -5   3    4.83    1.55
   1  -5   3    4.34    2.67
   1  -5   3    3.69    1.58
   1  -5   4  130.67   10.31
   1  -5   4  144.66   10.12
   1  -5   4  130.29    8.56
   1  -5   4  134.80    9.85
   1  -5   4  149.34   10.91
   1  -5   4  161.49    8.75
   1  -5   5  129.77    8.94
   1  -5   5  134.23    9.03
   1  -5   5  102.57    7.34
   1  -5   5  114.57    9.34
   1  -5   5  123.53    7.68
   1  -5   5  134.74    7.67
   1  -5   6  157.19    9.50
   1  -5   6  147.32    9.24
   1  -5   6  143.16   10.13
   1  -5   6  156.02   10.90
   1  -5   7  139.22    8.82
   1  -5   7  148.29    9.52
   1  -5   7  156.29    8.64
   1  -5   7  138.61    8.38
   1  -5   7  148.93    9.04
   1  -5   8   17.42    1.33
   1  -5   8   18.28    1.28
   1  -5   9    0.61    0.19
   1  -4 -11   26.76    2.60
   1  -4  -9   86.52    8.58
   1  -4  -9   86.88   10.28
   1  -4  -9   86.73    8.58
   1  -4  -8  209.71   16.15
   1  -4  -8  242.64   18.91
   1  -4  -8  223.76   16.39
   1  -4  -8  232.32   18.30
   1  -4  -7   26.12    3.98
   1  -4  -7   26.34    4.98
   1  -4  -7   27.94    4.03
   1  -4  -7   32.40    3.69
   1  -4  -7   40.58    7.02
   1  -4  -7   37.29    5.99
   1  -4  -6   70.15    8.61
   1  -4  -6   63.55    7.25
   1  -4  -6   53.57    5.43
   1  -4  -6   55.33    4.46
   1  -4  -6   60.94    6.89
   1  -4  -6   54.64    5.52
   1  -4  -5  159.65   13.09
   1  -4  -5  162.32   11.77
   1  -4  -5  119.96    8.83
   1  -4  -5  145.89    9.90
   1  -4  -5  123.61    8.77
   1  -4  -5  148.41   11.25
   1  -4  -5  158.44   10.08
   1  -4  -4   83.56    8.17
   1  -4  -4   69.77    6.75
   1  -4  -4   60.21    4.03
   1  -4  -4   67.13    4.85
   1  -4  -4   67.33    5.32
   1  -4  -4   56.13    4.62
   1  -4  -4   62.94    6.20
   1  -4  -4   64.60    5.23
   1  -4  -3   14.96    1.31
   1  -4  -3   18.20    3.91
   1  -4  -3   19.01    2.29
   1  -4  -3   14.26    1.87
   1  -4  -3   17.14    2.85
   1  -4  -3   16.15    2.16
   1  -4  -3   14.53    3.04
   1  -4  -3   13.28    1.77
   1  -4  -3   16.06    1.52
   1  -4  -2  246.21   15.29
   1  -4  -2  253.38   14.08
   1  -4  -2  301.30   15.44
   1  -4  -2  270.36   15.25
   1  -4  -2  275.99   14.84
   1  -4  -2  189.59   16.58
   1  -4  -2  218.92   16.21
   1  -4  -2  238.61   15.26
   1  -4  -1    2.31    1.18
   1  -4  -1    1.99    0.77
   1  -4  -1    2.85    0.38
   1  -4  -1    2.98    0.86
   1  -4  -1    1.20    0.73
   1  -4  -1    0.28    1.34
   1  -4  -1    1.67    1.39
   1  -4  -1    1.72    0.36
   1  -4  -1    1.56    1.86
   1  -4  -1    1.15    0.57
   1  -4  -1    0.40    0.60
   1  -4   0  308.71   18.08
   1  -4   0  316.76   17.65
   1  -4   0  344.36   20.57
   1  -4   0  301.93   16.40
   1  -4   0  287.00   16.37
   1  -4   0  294.85   16.36
   1  -4   0  323.01   19.00
   1  -4   0  289.00   19.43
   1  -4   0  316.58   17.58
   1  -4   0  276.44   17.33
   1  -4   0  283.48   19.12
   1  -4   0  284.23   17.38
   1  -4   0  271.17   18.98
   1  -4   1    0.66    1.02
   1  -4   1    0.66    1.14
   1  -4   1    0.04    0.29
   1  -4   1    0.03    0.27
   1  -4   1    0.16    0.32
   1  -4   1    0.30    1.15
   1  -4   1    1.10    1.48
   1  -4   1    1.92    0.88
   1  -4   1   -0.46    1.64
   1  -4   1    0.17    0.67
   1  -4   2   83.89    6.24
   1  -4   2   85.88    4.95
   1  -4   2   77.85    4.90
   1  -4   2   85.22    4.95
   1  -4   2   81.25    4.86
   1  -4   2   81.07    4.90
   1  -4   2   87.37    6.16
   1  -4   2   81.50    6.10
   1  -4   2   73.93    7.02
   1  -4   2   85.40    7.42
   1  -4   2   85.57    7.09
   1  -4   2   70.91    6.76
   1  -4   2   82.96    5.89
   1  -4   3   95.10    5.65
   1  -4   3   82.79    7.19
   1  -4   3   92.60    7.38
   1  -4   3   94.68    5.62
   1  -4   3   92.44    6.96
   1  -4   3  105.51    8.04
   1  -4   3   91.61    7.23
   1  -4   3   88.44    6.56
   1  -4   4    0.49    0.72
   1  -4   4    0.50    0.63
   1  -4   4    0.13    0.52
   1  -4   4   -0.91    2.53
   1  -4   4    0.54    0.79
   1  -4   4    0.41    1.21
   1  -4   4    1.51    0.94
   1  -4   5   13.31    2.44
   1  -4   5   10.90    2.21
   1  -4   5   10.01    1.35
   1  -4   5    8.35    2.90
   1  -4   5   13.02    1.56
   1  -4   6  435.68   26.30
   1  -4   6  488.37   24.86
   1  -4   6  493.20   25.53
   1  -4   7   57.78    5.17
   1  -4   7   64.46    4.29
   1  -4   7   67.53    4.73
   1  -4   8   80.23    5.27
   1  -4   8   81.35    5.77
   1  -4   8   78.87    4.90
   1  -4   8   75.51    4.79
   1  -4   8   79.28    5.31
   1  -4   9    7.47    0.72
   1  -4   9    6.65    0.72
   1  -4  10   17.05    1.09
   1  -3 -11   17.63    3.85
   1  -3  -9   80.92    8.29
   1  -3  -9   78.67    8.11
   1  -3  -8   39.63    6.31
   1  -3  -8   33.38    4.77
   1  -3  -8   38.03    5.08
   1  -3  -7   35.11    5.34
   1  -3  -7   26.16    3.70
   1  -3  -7   27.88    3.42
   1  -3  -7   26.07    2.71
   1  -3  -7   24.31    3.75
   1  -3  -6    1.32    0.60
   1  -3  -6    3.06    1.29
   1  -3  -6    1.67    1.16
   1  -3  -6    1.85    1.86
   1  -3  -5   74.99    6.80
   1  -3  -5   67.81    4.59
   1  -3  -5   61.52    4.51
   1  -3  -5   63.18    4.34
   1  -3  -5   72.05    5.60
   1  -3  -5   63.35    4.57
   1  -3  -5   65.56    5.49
   1  -3  -4  844.55   42.78
   1  -3  -4  676.70   40.16
   1  -3  -4  747.00   40.46
   1  -3  -4  662.59   39.87
   1  -3  -4  765.90   41.19
   1  -3  -4  817.34   40.58
   1  -3  -4  773.90   41.20
   1  -3  -3    4.99    1.59
   1  -3  -3    3.32    0.80
   1  -3  -3    3.42    0.97
   1  -3  -3    4.47    0.87
   1  -3  -3    4.52    0.65
   1  -3  -3    2.92    0.91
   1  -3  -3    3.62    1.40
   1  -3  -2  266.08   15.72
   1  -3  -2  250.22   14.45
   1  -3  -2  260.08   14.55
   1  -3  -2  259.46   14.43
   1  -3  -2  223.60   14.04
   1  -3  -2  251.23   15.40
   1  -3  -2  254.03   14.52
   1  -3  -1  764.85   39.25
   1  -3  -1  743.46   38.25
   1  -3  -1  650.79   39.03
   1  -3  -1  735.01   38.22
   1  -3  -1  652.26   38.06
   1  -3  -1  628.17   37.84
   1  -3  -1  541.74   39.38
   1  -3  -1  746.23   38.23
   1  -3   0  616.42   33.58
   1  -3   0  537.19   33.99
   1  -3   0  548.65   32.64
   1  -3   0  616.03   32.76
   1  -3   0  552.73   34.05
   1  -3   0  708.54   34.17
   1  -3   0  533.83   34.29
   1  -3   0  552.96   32.55
   1  -3   0  593.60   32.75
   1  -3   0  672.46   35.22
   1  -3   1   69.44    6.05
   1  -3   1   62.55    5.83
   1  -3   1   65.80    3.91
   1  -3   1   65.04    4.61
   1  -3   1   70.96    5.62
   1  -3   1   74.01    6.33
   1  -3   1   68.28    3.94
   1  -3   1   67.83    4.63
   1  -3   1   68.20    4.71
   1  -3   1   81.65    6.83
   1  -3   2  104.80    8.07
   1  -3   2  109.34    8.14
   1  -3   2  105.82    5.98
   1  -3   2  106.91    6.69
   1  -3   2   87.49    7.56
   1  -3   2  109.55    8.38
   1  -3   2  101.42    5.98
   1  -3   2  112.31    7.01
   1  -3   3    8.97    1.61
   1  -3   3   11.87    1.75
   1  -3   3   12.28    1.00
   1  -3   3   10.19    0.95
   1  -3   3   11.78    1.00
   1  -3   3   12.07    1.44
   1  -3   3    7.90    1.92
   1  -3   3   10.60    0.95
   1  -3   3   12.02    2.12
   1  -3   3    9.19    1.88
   1  -3   4  231.44   14.36
   1  -3   4  238.66   14.40
   1  -3   4  225.02   12.44
   1  -3   4  247.05   14.87
   1  -3   4  201.72   13.68
   1  -3   4  207.34   12.36
   1  -3   5   17.04    1.69
   1  -3   5   18.13    1.62
   1  -3   5   24.70    3.14
   1  -3   5   14.45    2.68
   1  -3   5   14.74    2.30
   1  -3   5   21.58    2.82
   1  -3   5   20.62    2.76
   1  -3   6    4.19    1.72
   1  -3   6    2.80    0.81
   1  -3   6    1.87    2.68
   1  -3   6    4.14    1.65
   1  -3   6    4.17    0.87
   1  -3   6    1.19    0.71
   1  -3   7   60.69    4.22
   1  -3   7   44.70    5.42
   1  -3   7   62.79    4.15
   1  -3   7   53.29    4.79
   1  -3   7   48.73    3.70
   1  -3   8   10.49    1.20
   1  -3   8   10.88    1.99
   1  -3   8    9.46    1.42
   1  -3   8   11.64    1.54
   1  -3   9    0.16    0.35
   1  -3  10    1.84    0.29
   1  -2 -11    4.67    2.36
   1  -2 -10    7.47    2.84
   1  -2  -9    1.27    0.92
   1  -2  -8   42.72    4.09
   1  -2  -8   43.73    3.84
   1  -2  -7   42.96    3.77
   1  -2  -6   43.15    3.34
   1  -2  -6   43.73    3.60
   1  -2  -5  387.43   22.28
   1  -2  -4  266.09   14.01
   1  -2  -4  278.86   13.83
   1  -2  -3    8.51    0.96
   1  -2  -3    6.34    0.49
   1  -2  -2  419.22   24.51
   1  -2  -2  508.46   26.23
   1  -2  -2  482.12   25.39
   1  -2  -2  418.45   24.52
   1  -2  -1   33.20    2.83
   1  -2  -1   33.14    2.34
   1  -2  -1   38.63    3.13
   1  -2  -1   34.35    2.35
   1  -2   0  969.49   51.35
   1  -2   0 1151.83   52.34
   1  -2   0 1038.38   53.07
   1  -2   0  958.09   51.39
   1  -2   0  802.61   51.19
   1  -2   0 1018.12   52.37
   1  -2   0  797.39   52.36
   1  -2   0 1010.39   51.37
   1  -2   0  861.23   52.43
   1  -2   1   58.46    4.33
   1  -2   1   64.73    5.25
   1  -2   1   53.49    3.65
   1  -2   1   50.73    3.63
   1  -2   1   69.75    5.39
   1  -2   1   61.15    5.04
   1  -2   1   49.70    4.73
   1  -2   2  146.71   10.13
   1  -2   2  151.49    8.77
   1  -2   2  150.58    8.87
   1  -2   2  134.50    9.78
   1  -2   2  140.24    9.88
   1  -2   2  143.38    8.61
   1  -2   3  357.18   22.37
   1  -2   3  391.58   20.87
   1  -2   3  354.78   21.16
   1  -2   3  370.31   22.21
   1  -2   3  356.33   22.11
   1  -2   4    7.56    1.71
   1  -2   4   10.29    1.86
   1  -2   4    9.21    0.87
   1  -2   4    9.18    1.23
   1  -2   4    7.60    0.96
   1  -2   4    8.22    1.47
   1  -2   4    8.16    1.31
   1  -2   4   12.88    2.16
   1  -2   5    9.24    1.02
   1  -2   5   10.87    1.95
   1  -2   5   11.96    2.16
   1  -2   5   12.01    1.55
   1  -2   5    7.99    1.76
   1  -2   5   10.87    2.12
   1  -2   6   11.15    2.15
   1  -2   6   10.66    1.89
   1  -2   6    7.60    1.15
   1  -2   6    8.92    1.61
   1  -2   6    8.30    1.09
   1  -2   7   18.63    1.82
   1  -2   7   15.46    2.19
   1  -2   7   20.02    1.66
   1  -2   7   15.90    1.57
   1  -2   7   13.74    2.32
   1  -2   7   14.19    2.75
   1  -2   8   44.29    3.06
   1  -2   8   51.45    4.41
   1  -2   8   48.33    3.31
   1  -2   8   48.08    3.68
   1  -2   8   52.03    3.72
   1  -2   9   11.12    1.13
   1  -2   9   12.12    1.98
   1  -2   9   10.57    1.40
   1  -2   9   10.18    1.12
   1  -2  10    5.94    0.73
   1  -2  10    4.90    0.61
   1  -2  11   -0.08    0.22
   1  -1 -10    1.31    0.91
   1  -1  -9   52.70    5.00
   1  -1  -9   51.51    4.62
   1  -1  -9   49.35    6.85
   1  -1  -8   68.66    5.74
   1  -1  -7   51.44    4.30
   1  -1  -7   61.98    4.79
   1  -1  -6  112.10    6.35
   1  -1  -6  122.09    7.13
   1  -1  -5  169.62   10.84
   1  -1  -5  191.14   11.49
   1  -1  -5  206.91   11.39
   1  -1  -4  111.75    6.93
   1  -1  -4  103.95    6.14
   1  -1  -4  115.82    6.72
   1  -1  -3   63.56    3.65
   1  -1  -3   54.86    3.29
   1  -1  -3   63.81    4.00
   1  -1  -2    1.22    0.23
   1  -1  -1  134.29    8.51
   1  -1   0   16.96    1.44
   1  -1   0   16.19    1.90
   1  -1   1    0.43    0.47
   1  -1   1   -0.14    0.85
   1  -1   2    4.29    0.73
   1  -1   2    5.48    0.66
   1  -1   2    5.16    1.27
   1  -1   2    5.37    1.33
   1  -1   3  122.11    7.94
   1  -1   3  125.05    7.95
   1  -1   3  128.74    8.15
   1  -1   3  110.55    7.43
   1  -1   3  119.64    6.76
   1  -1   3  108.38    6.86
   1  -1   4  119.58    6.85
   1  -1   4  105.32    7.10
   1  -1   4  117.58    7.54
   1  -1   4  122.84    7.47
   1  -1   4  119.98    7.41
   1  -1   5  680.54   40.34
   1  -1   5  819.16   42.35
   1  -1   5  778.10   42.25
   1  -1   5  808.08   42.67
   1  -1   5  770.49   41.68
   1  -1   5  754.71   40.79
   1  -1   6  266.55   15.17
   1  -1   6  253.34   16.23
   1  -1   6  254.65   14.70
   1  -1   7    8.67    1.17
   1  -1   7    9.99    1.21
   1  -1   7    6.30    1.75
   1  -1   7    7.72    0.98
   1  -1   7   10.35    1.85
   1  -1   7    9.93    1.63
   1  -1   7   11.52    1.21
   1  -1   8    1.37    1.06
   1  -1   8    0.76    1.09
   1  -1   8    1.83    0.52
   1  -1   8    1.39    0.52
   1  -1   8    1.86    0.73
   1  -1   8    1.13    0.69
   1  -1   9    3.89    0.68
   1  -1   9    4.38    0.73
   1  -1   9    4.25    0.66
   1  -1   9    3.39    0.92
   1  -1  10   78.42    4.63
   1  -1  10   71.12    4.48
   1  -1  11   -0.33    0.48
   1  -1  11   -0.12    0.28
   1  -1  12    0.34    0.14
   1   0 -11   -0.63    0.96
   1   0 -10   16.96    3.91
   1   0 -10   30.04    3.14
   1   0  -9    1.08    0.89
   1   0  -9    1.45    1.85
   1   0  -9    2.31    1.07
   1   0  -8   10.77    1.77
   1   0  -8    8.69    1.83
   1   0  -8   10.16    3.02
   1   0  -7   23.50    3.02
   1   0  -7   20.56    2.44
   1   0  -6    1.66    0.77
   1   0  -6    1.62    0.58
   1   0  -6    1.85    0.86
   1   0  -6    1.50    0.60
   1   0  -5 1377.61   78.60
   1   0  -5 1426.87   79.17
   1   0  -5 1380.51   78.63
   1   0  -5 1603.82   79.33
   1   0  -4    0.82    0.49
   1   0  -4    0.26    0.37
   1   0  -4    0.52    0.22
   1   0  -3  494.84   25.95
   1   0  -3  549.66   26.59
   1   0  -2  145.42    8.30
   1   0  -1  300.28   17.28
   1   0   0   25.99    2.01
   1   0   0   23.58    1.96
   1   0   0   24.71    2.01
   1   0   1   40.88    2.73
   1   0   1   34.41    2.75
   1   0   1   35.15    2.74
   1   0   1   37.69    2.83
   1   0   2  415.29   22.94
   1   0   2  422.13   22.94
   1   0   3  152.86    8.23
   1   0   3  122.40    7.73
   1   0   4  420.62   24.55
   1   0   4  455.86   25.34
   1   0   4  444.51   25.28
   1   0   5   10.84    1.15
   1   0   5    9.20    1.38
   1   0   5   10.70    0.94
   1   0   5    9.12    1.17
   1   0   5   10.91    1.87
   1   0   5   13.24    1.97
   1   0   6  188.14   12.35
   1   0   6  195.19   11.28
   1   0   6  206.39   11.70
   1   0   7    0.95    0.49
   1   0   7    0.89    0.73
   1   0   7    1.24    0.57
   1   0   7    0.82    0.87
   1   0   8   21.16    2.28
   1   0   8   20.73    1.88
   1   0   8   20.99    2.56
   1   0   8   17.24    1.56
   1   0   8   21.50    1.64
   1   0   8   17.87    1.59
   1   0   9   26.62    1.99
   1   0   9   26.82    2.74
   1   0   9   26.84    2.04
   1   0   9   23.81    1.97
   1   0  10  168.32   11.53
   1   0  10  186.51   10.88
   1   0  10  201.88   10.90
   1   0  11   69.69    4.32
   1   0  11   73.73    4.62
   1   0  12   32.84    2.06
   1   0  12   34.85    2.21
   1   1 -10   -0.48    1.23
   1   1  -9  250.80   14.86
   1   1  -9  186.36   17.15
   1   1  -8   62.38    5.85
   1   1  -8   59.30    8.40
   1   1  -7  229.55   13.44
   1   1  -7  253.95   14.64
   1   1  -6   -0.31    0.58
   1   1  -6    0.14    0.48
   1   1  -6   -0.25    0.68
   1   1  -6    0.18    0.69
   1   1  -6   -0.99    1.54
   1   1  -5  167.15    9.73
   1   1  -5  166.33    9.75
   1   1  -4   12.19    1.41
   1   1  -4   11.72    1.28
   1   1  -4    9.28    1.28
   1   1  -4    8.68    1.13
   1   1  -4   10.16    1.66
   1   1  -4    9.16    1.17
   1   1  -4   10.54    1.10
   1   1  -3  699.41   37.98
   1   1  -3  707.50   37.28
   1   1  -3  652.56   37.87
   1   1  -3  664.42   38.01
   1   1  -3  708.91   38.52
   1   1  -3  659.85   37.99
   1   1  -3  646.09   37.61
   1   1  -2  277.73   16.69
   1   1  -2  285.28   16.25
   1   1  -2  316.88   16.92
   1   1  -2  282.99   16.77
   1   1  -2  310.00   17.08
   1   1  -2  295.30   16.39
   1   1  -2  281.45   16.76
   1   1  -1  339.72   19.65
   1   1  -1  413.72   20.05
   1   1  -1  325.38   19.90
   1   1  -1  408.09   20.24
   1   1  -1  332.82   19.92
   1   1  -1  330.62   19.63
   1   1   0  438.08   24.94
   1   1   0  421.47   24.99
   1   1   0  420.91   25.00
   1   1   1   34.58    2.54
   1   1   1   38.11    2.47
   1   1   1   39.24    2.48
   1   1   1   39.73    2.47
   1   1   2  233.62   12.62
   1   1   2  219.71   12.91
   1   1   2  222.73   12.91
   1   1   2  233.29   12.62
   1   1   2  218.35   12.96
   1   1   2  210.85   12.76
   1   1   3    2.46    0.54
   1   1   3    3.40    0.44
   1   1   3    3.58    0.59
   1   1   3    3.22    0.43
   1   1   3    3.50    0.84
   1   1   3    2.60    0.74
   1   1   4    5.23    1.08
   1   1   4    5.77    0.62
   1   1   5    4.54    0.79
   1   1   5    4.60    0.72
   1   1   5    4.47    0.82
   1   1   5    4.87    1.20
   1   1   6   11.47    1.40
   1   1   6   14.93    1.40
   1   1   6   12.50    1.15
   1   1   6   15.25    1.32
   1   1   6   13.21    2.16
   1   1   6   12.38    1.58
   1   1   7  203.33   11.68
   1   1   8   48.36    3.22
   1   1   8   51.35    3.33
   1   1   9   31.44    2.35
   1   1   9   34.60    2.46
   1   1  10    2.45    0.54
   1   1  10    2.55    0.63
   1   1  11   51.60    3.45
   1   1  11   45.60    3.04
   1   1  12    0.15    0.40
   1   1  12    0.22    0.25
   1   2 -10    4.33    1.23
   1   2  -9    0.54    1.60
   1   2  -9   -0.18    1.34
   1   2  -9    0.41    0.74
   1   2  -8   11.02    3.25
   1   2  -8    6.76    1.60
   1   2  -7  155.98   11.14
   1   2  -7  128.68   13.06
   1   2  -7  142.60    9.95
   1   2  -7  144.43    9.67
   1   2  -6    4.83    2.48
   1   2  -6    3.25    1.18
   1   2  -6    1.49    0.83
   1   2  -5   15.03    1.87
   1   2  -5   15.80    1.90
   1   2  -5   19.55    4.04
   1   2  -4   95.48    6.10
   1   2  -4   92.91    6.38
   1   2  -4   93.28    6.36
   1   2  -4   99.77    9.09
   1   2  -3   34.95    4.46
   1   2  -3   32.86    2.65
   1   2  -3   32.39    2.59
   1   2  -3   38.31    2.88
   1   2  -3   31.22    2.74
   1   2  -3   32.15    2.61
   1   2  -3   41.24    3.09
   1   2  -3   36.09    2.89
   1   2  -3   32.99    2.33
   1   2  -2    8.78    1.12
   1   2  -2    8.63    1.07
   1   2  -2    9.39    1.15
   1   2  -2    9.63    1.09
   1   2  -2    7.12    1.06
   1   2  -2   11.37    1.25
   1   2  -2    8.67    1.17
   1   2  -2    8.46    1.15
   1   2  -2    7.80    0.91
   1   2  -1   77.04    4.78
   1   2  -1   69.59    4.64
   1   2  -1   72.74    4.75
   1   2  -1   72.17    4.59
   1   2  -1   73.17    4.77
   1   2  -1   71.23    4.55
   1   2   0   62.13    4.12
   1   2   0   64.68    3.80
   1   2   0   59.46    3.92
   1   2   0   65.28    4.15
   1   2   0   52.04    4.58
   1   2   0   65.27    4.17
   1   2   0   62.45    4.03
   1   2   1    5.03    0.60
   1   2   1    5.71    0.68
   1   2   2    0.13    0.15
   1   2   2    0.72    0.47
   1   2   2   -0.23    0.39
   1   2   2    0.28    0.50
   1   2   3   66.77    4.27
   1   2   3   70.78    4.41
   1   2   3   67.09    4.38
   1   2   3   66.84    4.22
   1   2   4  401.09   20.02
   1   2   4  324.62   19.64
   1   2   4  361.82   19.77
   1   2   4  320.41   20.06
   1   2   4  399.39   20.01
   1   2   4  365.29   20.00
   1   2   5   25.40    2.59
   1   2   6   44.56    4.15
   1   2   6   45.57    3.22
   1   2   6   47.22    3.04
   1   2   7    7.99    1.04
   1   2   7    7.54    0.88
   1   2   8    0.38    0.38
   1   2   8    0.15    0.31
   1   2   9  208.72   12.09
   1   2   9  179.28   11.02
   1   2   9  206.81   11.26
   1   2  10   51.36    3.89
   1   2  10   46.51    3.10
   1   2  10   39.52    2.87
   1   2  11    6.46    1.34
   1   2  11    6.19    0.75
   1   2  12    0.03    0.22
   1   3  -9   10.59    1.80
   1   3  -8    5.65    1.61
   1   3  -8    4.13    2.47
   1   3  -8    7.01    2.02
   1   3  -7   96.62    6.88
   1   3  -7   75.30    7.08
   1   3  -7   82.93    6.24
   1   3  -7   65.29    8.25
   1   3  -7   70.52    6.17
   1   3  -7   83.95    6.45
   1   3  -6  234.15   14.92
   1   3  -6  251.22   15.18
   1   3  -6  213.23   18.26
   1   3  -5   49.41    3.62
   1   3  -5   42.67    3.79
   1   3  -5   36.03    5.89
   1   3  -5   27.68    3.35
   1   3  -4   18.97    1.97
   1   3  -4   13.61    3.37
   1   3  -4   15.57    2.04
   1   3  -4   13.31    1.91
   1   3  -3    2.96    0.91
   1   3  -3    3.55    0.74
   1   3  -3    2.48    1.50
   1   3  -3    2.39    0.50
   1   3  -3    2.20    0.48
   1   3  -3    3.48    0.85
   1   3  -3    3.43    0.90
   1   3  -3    2.73    0.66
   1   3  -2    0.25    0.58
   1   3  -2    0.39    0.46
   1   3  -2    1.89    1.23
   1   3  -2    0.26    0.57
   1   3  -2    0.23    0.57
   1   3  -2    0.90    0.60
   1   3  -2    0.69    0.48
   1   3  -1  204.81   15.21
   1   3  -1  222.27   13.85
   1   3  -1  244.93   13.92
   1   3  -1  243.50   13.82
   1   3  -1  253.91   13.95
   1   3   0  804.12   43.87
   1   3   0  749.40   45.03
   1   3   0  785.49   43.85
   1   3   0  813.19   43.93
   1   3   0  719.37   44.93
   1   3   0  833.27   43.89
   1   3   0  662.17   44.63
   1   3   0  839.02   43.76
   1   3   0  791.11   43.89
   1   3   1  120.72    7.38
   1   3   1  124.84    8.05
   1   3   1  128.12    7.58
   1   3   1  114.43    7.85
   1   3   1  125.75    7.26
   1   3   1  117.14    7.51
   1   3   1  125.73    7.56
   1   3   2  108.19    6.17
   1   3   2  108.57    6.06
   1   3   3  656.31   33.27
   1   3   3  567.01   33.11
   1   3   3  562.16   33.10
   1   3   3  596.49   32.89
   1   3   4  100.08    6.00
   1   3   4   85.68    5.72
   1   3   4  110.02    6.25
   1   3   4   92.54    6.16
   1   3   4  111.21    6.26
   1   3   5    8.69    1.19
   1   3   5    6.96    0.96
   1   3   5    8.60    1.14
   1   3   5    8.24    1.31
   1   3   5    9.07    0.94
   1   3   6  131.94    8.50
   1   3   6  130.64    8.50
   1   3   6  149.76    9.72
   1   3   6  150.60    8.40
   1   3   6  165.55    9.09
   1   3   6  159.58    8.67
   1   3   7  126.14    7.59
   1   3   7  130.10    7.85
   1   3   7  114.47    9.08
   1   3   7  133.83    8.03
   1   3   8  481.75   29.44
   1   3   8  544.64   29.27
   1   3   8  551.01   29.85
   1   3   8  540.76   29.93
   1   3   9   34.52    2.59
   1   3   9   44.31    2.79
   1   3   9   41.92    3.08
   1   3   9   42.07    3.49
   1   3  10    7.97    1.18
   1   3  10    8.05    0.89
   1   3  10   11.88    1.21
   1   3  10    8.84    1.64
   1   3  11   30.74    2.42
   1   3  11   27.92    1.98
   1   3  11   33.09    2.87
   1   3  12   11.82    0.96
   1   3  12    9.53    1.35
   1   3  12    8.23    0.73
   1   4  -9    0.95    0.74
   1   4  -8   -0.32    1.10
   1   4  -8   -0.18    0.68
   1   4  -8    0.92    1.42
   1   4  -7  122.72   11.12
   1   4  -7  116.45    7.96
   1   4  -7   99.57    7.49
   1   4  -7  108.85    8.08
   1   4  -6  152.47   10.69
   1   4  -6  169.63   10.43
   1   4  -6  150.94   13.80
   1   4  -6  136.73   10.02
   1   4  -6  147.29   11.01
   1   4  -6  140.00    9.98
   1   4  -5  399.81   29.46
   1   4  -5  421.28   25.74
   1   4  -5  453.85   26.39
   1   4  -5  444.11   25.86
   1   4  -4   68.87    5.90
   1   4  -4   78.86    6.13
   1   4  -4   92.53    6.08
   1   4  -4   80.13    6.55
   1   4  -4   72.55    5.99
   1   4  -3    0.18    0.74
   1   4  -3    0.16    0.53
   1   4  -3    1.18    1.26
   1   4  -3    0.18    0.67
   1   4  -3   -0.99    1.47
   1   4  -2   97.65    6.81
   1   4  -2   96.37    6.34
   1   4  -2   97.33    6.54
   1   4  -2   92.61    6.70
   1   4  -2   90.87    6.49
   1   4  -2   92.33    6.30
   1   4  -2  108.38    6.77
   1   4  -1   11.86    1.68
   1   4  -1    8.27    1.28
   1   4  -1    9.22    1.45
   1   4  -1   10.36    1.42
   1   4  -1   11.21    1.50
   1   4  -1    9.64    1.37
   1   4   0   47.49    3.67
   1   4   0   40.45    3.47
   1   4   0   40.28    3.22
   1   4   0   56.18    3.60
   1   4   0   40.96    3.41
   1   4   0   48.12    3.61
   1   4   0   51.84    3.72
   1   4   0   43.45    3.57
   1   4   0   61.26    4.71
   1   4   1  123.87    6.09
   1   4   1  110.64    6.77
   1   4   1   96.46    6.62
   1   4   1  116.36    7.01
   1   4   1  116.60    7.49
   1   4   1   85.88    6.06
   1   4   1   85.17    6.27
   1   4   1   86.98    6.51
   1   4   1  116.54    6.87
   1   4   2    0.16    0.32
   1   4   2    1.03    0.52
   1   4   2    0.58    0.59
   1   4   2    0.35    0.49
   1   4   2    0.17    0.65
   1   4   2    0.12    0.59
   1   4   2    0.40    0.36
   1   4   2    0.22    0.53
   1   4   2    0.35    0.59
   1   4   2   -0.03    0.28
   1   4   3 1548.59   76.81
   1   4   3 1324.64   76.27
   1   4   3 1372.48   76.15
   1   4   3 1379.72   75.76
   1   4   4   35.77    2.56
   1   4   4   33.10    2.95
   1   4   4   30.41    2.53
   1   4   4   34.70    2.92
   1   4   4   38.54    2.83
   1   4   4   30.72    2.49
   1   4   4   35.72    2.94
   1   4   5  250.59   15.51
   1   4   5  289.79   15.81
   1   4   5  276.37   15.74
   1   4   5  262.13   14.93
   1   4   5  253.17   15.24
   1   4   5  292.55   15.77
   1   4   5  243.75   15.36
   1   4   6  310.79   17.71
   1   4   6  356.63   18.55
   1   4   6  299.18   18.83
   1   4   6  301.83   18.27
   1   4   6  307.19   18.29
   1   4   6  338.05   18.05
   1   4   7   16.46    1.70
   1   4   7   15.74    1.44
   1   4   7   14.09    2.25
   1   4   7   19.24    1.66
   1   4   7   18.57    1.47
   1   4   8  265.84   15.03
   1   4   8  270.94   14.43
   1   4   8  254.50   14.83
   1   4   8  249.70   14.23
   1   4   8  241.17   14.55
   1   4   8  239.83   14.35
   1   4   9   54.91    4.26
   1   4   9   55.95    3.59
   1   4   9   57.41    3.99
   1   4   9   60.49    3.78
   1   4   9   49.29    4.24
   1   4  10   19.74    1.93
   1   4  10   20.67    2.29
   1   4  11    4.18    0.78
   1   4  11    3.61    0.88
   1   4  11    4.84    1.19
   1   4  12   14.56    1.18
   1   4  12   11.28    1.51
   1   4  13   19.78    1.39
   1   5  -8   50.97    3.46
   1   5  -8   45.57    3.48
   1   5  -7  101.48    6.65
   1   5  -7   86.88    6.47
   1   5  -6    0.20    0.62
   1   5  -6    0.63    1.14
   1   5  -6    1.26    1.34
   1   5  -6   -0.79    1.43
   1   5  -5   17.52    2.50
   1   5  -5   20.15    3.02
   1   5  -5   20.03    2.60
   1   5  -5   13.12    2.02
   1   5  -5   21.63    2.79
   1   5  -4    3.63    1.22
   1   5  -4    4.04    1.12
   1   5  -4    2.37    1.66
   1   5  -4    2.39    1.09
   1   5  -4    1.34    1.40
   1   5  -3  106.02    7.24
   1   5  -3   91.49    7.36
   1   5  -3  102.55    6.76
   1   5  -3   98.85    7.26
   1   5  -3  103.59    7.40
   1   5  -2   22.20    2.45
   1   5  -2   16.29    1.94
   1   5  -2   17.98    1.93
   1   5  -2   13.80    1.80
   1   5  -2   20.95    2.41
   1   5  -2   20.07    2.63
   1   5  -2   18.63    2.46
   1   5  -2   17.52    2.23
   1   5  -2   21.05    2.55
   1   5  -2   18.90    2.05
   1   5  -1   10.63    1.71
   1   5  -1    4.58    1.18
   1   5  -1    8.87    2.93
   1   5  -1   14.20    2.67
   1   5  -1   10.63    1.61
   1   5  -1   13.44    1.96
   1   5  -1   13.18    1.82
   1   5  -1    9.03    1.33
   1   5  -1   11.00    1.46
   1   5  -1   13.46    1.68
   1   5  -1   11.67    1.70
   1   5  -1   10.81    1.51
   1   5  -1   14.26    3.41
   1   5   0    3.84    1.49
   1   5   0    3.51    1.04
   1   5   0    2.86    0.78
   1   5   0    3.68    1.18
   1   5   0    2.94    0.96
   1   5   0    3.89    0.95
   1   5   0    1.94    0.85
   1   5   0    3.50    0.94
   1   5   0    2.84    0.88
   1   5   0    3.82    1.78
   1   5   1   86.79    6.14
   1   5   1   87.06    6.70
   1   5   1   88.25    5.52
   1   5   1   71.03    5.19
   1   5   1   82.59    5.55
   1   5   1   89.65    5.16
   1   5   1   77.70    7.15
   1   5   1   80.27    5.88
   1   5   1   78.46    5.89
   1   5   1   90.29    5.75
   1   5   1   87.90    5.98
   1   5   1   86.75    6.09
   1   5   2  114.72    7.99
   1   5   2  110.28    8.54
   1   5   2  121.86    7.52
   1   5   2  102.30    7.32
   1   5   2  132.63    7.23
   1   5   2  125.83    7.30
   1   5   2  114.31    7.59
   1   5   2  130.25    7.81
   1   5   2  123.54    7.20
   1   5   2  133.42    8.19
   1   5   2  122.48    8.04
   1   5   2  137.87    8.36
   1   5   2  128.19    7.64
   1   5   2  126.94    8.12
   1   5   3    1.36    0.60
   1   5   3    1.06    0.40
   1   5   3    1.21    0.49
   1   5   3    1.96    0.75
   1   5   3    2.46    0.76
   1   5   3    2.42    0.53
   1   5   3    1.39    0.66
   1   5   4   72.10    4.56
   1   5   4   59.37    4.09
   1   5   4   62.55    4.54
   1   5   4   59.96    4.77
   1   5   4   73.96    5.21
   1   5   4   67.90    4.64
   1   5   4   82.06    5.35
   1   5   4   78.45    5.38
   1   5   5   13.28    1.64
   1   5   5   10.72    1.60
   1   5   5   11.86    1.78
   1   5   5   11.45    1.22
   1   5   5   10.93    1.25
   1   5   5   13.49    1.88
   1   5   6    7.49    1.25
   1   5   6    6.62    1.23
   1   5   6    6.25    1.26
   1   5   6    5.17    0.87
   1   5   7    6.42    1.06
   1   5   7    6.59    1.44
   1   5   7    8.77    0.92
   1   5   7    8.41    1.10
   1   5   7    8.91    1.07
   1   5   7    7.02    1.22
   1   5   7    6.04    1.13
   1   5   8  299.79   17.60
   1   5   8  300.48   18.08
   1   5   8  306.53   17.63
   1   5   8  316.07   17.97
   1   5   8  351.92   17.88
   1   5   9    4.30    1.05
   1   5   9    3.23    0.64
   1   5   9    4.33    0.91
   1   5   9    3.06    1.11
   1   5   9    3.00    0.58
   1   5  10   14.36    1.37
   1   5  10   12.57    1.81
   1   5  11    1.54    0.53
   1   5  11    0.92    0.83
   1   5  12    5.39    0.69
   1   5  12    4.45    0.91
   1   5  13   15.12    1.11
   1   6  -7    7.20    1.13
   1   6  -7    9.77    1.16
   1   6  -6    3.22    1.91
   1   6  -6    2.50    1.14
   1   6  -6    1.68    1.08
   1   6  -5   32.58    3.18
   1   6  -5   28.62    4.23
   1   6  -5   25.18    4.80
   1   6  -5   29.28    5.10
   1   6  -5   19.91    2.52
   1   6  -5   24.37    2.93
   1   6  -5   30.19    2.99
   1   6  -4    0.99    0.34
   1   6  -4    2.81    1.88
   1   6  -4    0.64    2.11
   1   6  -4    0.16    1.18
   1   6  -4   -0.63    1.86
   1   6  -4    2.20    1.60
   1   6  -4    1.44    0.86
   1   6  -4    1.29    2.01
   1   6  -4    0.48    0.79
   1   6  -4    1.16    0.80
   1   6  -3   17.95    1.50
   1   6  -3   23.43    4.83
   1   6  -3   29.88    4.34
   1   6  -3   22.24    2.59
   1   6  -3   24.83    3.00
   1   6  -3   22.72    2.85
   1   6  -3   32.43    5.40
   1   6  -3   18.53    2.61
   1   6  -3   25.41    3.13
   1   6  -3   24.45    2.91
   1   6  -2   18.58    4.26
   1   6  -2   15.95    3.28
   1   6  -2   15.99    2.01
   1   6  -2   12.59    2.06
   1   6  -2   18.08    2.39
   1   6  -2   15.92    2.16
   1   6  -2   17.94    2.52
   1   6  -2   14.61    3.78
   1   6  -2   14.98    1.26
   1   6  -2   16.61    2.44
   1   6  -2   13.91    2.21
   1   6  -1   75.65    5.76
   1   6  -1   75.39    7.22
   1   6  -1   92.10    5.83
   1   6  -1   80.28    5.75
   1   6  -1   81.83    5.86
   1   6  -1   85.12    6.27
   1   6  -1   83.46    5.90
   1   6  -1   74.61    4.65
   1   6  -1   73.51    6.03
   1   6  -1   80.32    5.85
   1   6  -1   82.10    8.39
   1   6  -1   70.61    5.60
   1   6  -1   71.23    5.63
   1   6   0    6.12    1.81
   1   6   0   10.97    1.89
   1   6   0    6.29    1.32
   1   6   0   11.14    1.58
   1   6   0    6.68    1.16
   1   6   0    6.61    1.53
   1   6   0    6.89    2.42
   1   6   0    7.77    1.03
   1   6   0    9.77    1.58
   1   6   0    6.90    1.44
   1   6   0    7.08    0.79
   1   6   0    7.55    1.45
   1   6   0    7.17    1.32
   1   6   0    4.76    1.10
   1   6   1   25.45    2.72
   1   6   1   29.46    2.83
   1   6   1   24.61    2.44
   1   6   1   30.43    2.18
   1   6   1   28.83    2.64
   1   6   1   28.72    3.02
   1   6   1   30.79    3.01
   1   6   1   27.19    2.12
   1   6   1   21.12    2.70
   1   6   1   25.89    3.42
   1   6   1   28.85    2.85
   1   6   1   26.64    2.69
   1   6   1   25.87    2.84
   1   6   2   21.10    1.68
   1   6   2   20.78    1.77
   1   6   2   20.53    2.40
   1   6   2   19.48    2.39
   1   6   2   19.92    2.04
   1   6   2   16.98    1.84
   1   6   2   19.65    1.63
   1   6   2   16.86    2.13
   1   6   2   19.31    2.27
   1   6   2   19.70    2.07
   1   6   2   22.31    2.52
   1   6   3    3.49    1.05
   1   6   3    1.75    0.57
   1   6   3    1.61    0.58
   1   6   3    1.83    0.73
   1   6   3    1.36    0.76
   1   6   3    1.33    0.69
   1   6   4  288.39   17.79
   1   6   4  302.67   17.52
   1   6   4  305.30   18.23
   1   6   4  307.96   18.21
   1   6   4  310.52   18.22
   1   6   5   39.66    2.70
   1   6   5   45.31    2.84
   1   6   5   38.59    2.89
   1   6   5   33.26    3.48
   1   6   5   42.13    3.74
   1   6   5   45.86    3.92
   1   6   6    3.30    0.78
   1   6   6    2.99    0.55
   1   6   6    2.84    0.59
   1   6   6    2.63    0.80
   1   6   6    1.14    0.73
   1   6   6    3.14    0.54
   1   6   6    1.90    0.78
   1   6   7   12.54    1.50
   1   6   7   13.60    1.31
   1   6   7   15.46    1.37
   1   6   7   12.98    1.90
   1   6   7   11.89    1.85
   1   6   7   12.84    1.22
   1   6   8   29.01    2.16
   1   6   8   29.93    2.15
   1   6   8   27.63    2.11
   1   6   9    0.56    0.66
   1   6   9    0.35    0.39
   1   6   9    0.07    0.56
   1   6   9   -0.06    0.40
   1   6   9    0.14    0.82
   1   6  10    0.34    0.50
   1   6  10    0.69    0.55
   1   6  10   -0.62    0.86
   1   6  11    2.45    0.62
   1   6  11    1.75    0.56
   1   6  11    1.62    0.75
   1   6  11    0.68    0.70
   1   6  12   57.84    3.57
   1   6  12   55.37    3.44
   1   6  12   57.86    3.43
   1   7  -6   47.79    2.86
   1   7  -5   32.96    2.79
   1   7  -5   34.32    2.46
   1   7  -4   11.59    1.30
   1   7  -4    7.61    2.75
   1   7  -4    9.55    2.31
   1   7  -4   10.62    1.68
   1   7  -3   53.92    3.51
   1   7  -3   42.01    6.04
   1   7  -3   42.70    2.92
   1   7  -3   42.52    4.52
   1   7  -3   53.86    5.73
   1   7  -3   49.39    3.99
   1   7  -2   14.63    2.00
   1   7  -2    6.33    2.99
   1   7  -2   13.42    1.46
   1   7  -2    9.13    1.89
   1   7  -2    7.53    1.75
   1   7  -2   11.16    1.06
   1   7  -2   13.09    2.26
   1   7  -2    9.58    2.46
   1   7  -1    2.00    1.04
   1   7  -1    0.75    1.24
   1   7  -1    2.63    0.92
   1   7  -1    3.03    1.18
   1   7  -1    2.93    1.05
   1   7  -1    1.30    0.82
   1   7  -1    2.75    2.21
   1   7  -1    3.03    0.76
   1   7  -1    1.88    0.50
   1   7  -1    0.99    0.66
   1   7  -1    2.79    0.97
   1   7  -1    2.00    0.48
   1   7   0   70.15    4.24
   1   7   0   67.56    6.47
   1   7   0   68.63    5.54
   1   7   0   66.54    5.01
   1   7   0   73.69    4.50
   1   7   0   71.59    4.70
   1   7   0   72.89    5.71
   1   7   0   65.06    4.16
   1   7   0   69.32    4.49
   1   7   0   68.71    5.59
   1   7   0   68.23    5.60
   1   7   0   65.14    4.22
   1   7   0   61.33    5.36
   1   7   0   62.29    5.37
   1   7   1  277.75   16.46
   1   7   1  304.58   18.10
   1   7   1  291.66   17.30
   1   7   1  258.36   16.99
   1   7   1  310.36   16.70
   1   7   1  311.57   16.93
   1   7   1  310.07   18.49
   1   7   1  340.14   18.55
   1   7   1  291.29   16.48
   1   7   1  282.36   16.67
   1   7   1  292.45   17.83
   1   7   1  314.23   18.37
   1   7   1  303.82   16.56
   1   7   1  284.44   18.01
   1   7   1  295.10   18.09
   1   7   2  119.49    7.59
   1   7   2   86.96    6.27
   1   7   2   92.30    5.86
   1   7   2   95.12    6.06
   1   7   2  107.60    7.48
   1   7   2  105.34    7.49
   1   7   2   90.71    5.73
   1   7   2   96.13    5.77
   1   7   2   86.03    6.58
   1   7   2  104.60    5.86
   1   7   2  104.15    7.47
   1   7   2  101.09    7.25
   1   7   2   97.11    7.20
   1   7   3    1.74    0.43
   1   7   3    1.80    0.84
   1   7   3    1.38    0.52
   1   7   3    1.65    0.68
   1   7   3    1.22    0.80
   1   7   3    1.53    0.45
   1   7   3    1.30    0.45
   1   7   3    1.31    0.76
   1   7   3    1.75    0.85
   1   7   3    1.79    0.50
   1   7   3    1.71    0.98
   1   7   3    2.29    1.04
   1   7   4  117.99    7.08
   1   7   4  113.57    7.06
   1   7   4  140.23    8.04
   1   7   4  117.46    8.59
   1   7   4  124.38    8.70
   1   7   4  108.72    8.16
   1   7   4  119.88    7.06
   1   7   4  129.79    8.84
   1   7   4  127.51    7.22
   1   7   5    2.20    0.62
   1   7   5    2.37    0.58
   1   7   5    2.47    0.49
   1   7   5    1.39    0.81
   1   7   5    2.79    1.00
   1   7   5    2.45    0.55
   1   7   5    2.64    1.03
   1   7   5    2.31    0.54
   1   7   5    2.87    0.63
   1   7   5    1.22    0.77
   1   7   6    7.00    1.12
   1   7   6    8.94    0.98
   1   7   6    8.60    0.96
   1   7   6    7.03    0.98
   1   7   6    7.67    1.62
   1   7   6    6.75    1.51
   1   7   6    7.94    0.94
   1   7   6    8.47    1.10
   1   7   7   13.08    1.26
   1   7   7   13.61    1.29
   1   7   7   12.06    1.24
   1   7   7   13.52    1.35
   1   7   7   11.78    1.52
   1   7   7   12.42    2.00
   1   7   7   11.10    1.92
   1   7   7   12.74    1.22
   1   7   7   11.91    1.41
   1   7   8    0.51    0.48
   1   7   8    0.51    0.54
   1   7   8    1.35    0.57
   1   7   8    1.24    0.96
   1   7   8    0.09    0.53
   1   7   8   -0.21    0.49
   1   7   8   -0.25    0.38
   1   7   9  127.37    7.41
   1   7   9  119.47    7.30
   1   7   9  134.33    7.44
   1   7   9  125.83    7.56
   1   7   9  118.38    7.29
   1   7   9  111.94    7.77
   1   7  10  138.21    7.74
   1   7  10  144.51    7.98
   1   7  11  101.48    6.36
   1   7  11  113.31    6.45
   1   7  11  116.76    6.55
   1   7  12    0.57    0.27
   1   7  12    0.83    0.45
   1   8  -4   87.97    5.77
   1   8  -4   95.42    5.42
   1   8  -3  107.15    6.94
   1   8  -3  103.50    6.24
   1   8  -3  121.88    6.69
   1   8  -2   29.39    3.72
   1   8  -2   34.92    2.60
   1   8  -2   33.28    2.25
   1   8  -2   30.01    2.84
   1   8  -1    4.44    1.20
   1   8  -1    6.63    1.01
   1   8  -1    5.06    1.26
   1   8  -1    5.40    0.83
   1   8  -1    4.58    0.67
   1   8  -1    5.22    0.73
   1   8   0   37.33    2.60
   1   8   0   43.39    4.01
   1   8   0   31.99    3.16
   1   8   0   32.82    2.96
   1   8   0   40.26    2.92
   1   8   0   42.92    4.35
   1   8   0   33.97    3.65
   1   8   0   38.33    3.81
   1   8   0   38.26    2.71
   1   8   0   39.04    2.64
   1   8   1    7.50    1.70
   1   8   1    8.24    1.31
   1   8   1    9.37    1.19
   1   8   1    8.73    0.97
   1   8   1   10.18    1.02
   1   8   1    8.94    1.04
   1   8   1    8.69    1.90
   1   8   1    7.65    1.65
   1   8   1    9.16    1.77
   1   8   2   16.66    2.59
   1   8   2   20.02    2.12
   1   8   2   16.83    1.74
   1   8   2   22.34    1.74
   1   8   2   20.68    1.65
   1   8   2   20.35    2.81
   1   8   2   19.56    1.64
   1   8   2   16.89    2.59
   1   8   2   18.46    2.70
   1   8   3    7.05    0.86
   1   8   3    5.19    1.16
   1   8   3    5.59    1.46
   1   8   3    5.47    0.83
   1   8   3    5.72    0.74
   1   8   3    6.06    1.54
   1   8   3    7.50    1.64
   1   8   3    6.42    0.89
   1   8   3    6.22    1.56
   1   8   4   78.26    6.69
   1   8   4  102.52    6.42
   1   8   4   85.19    7.22
   1   8   4   93.35    5.59
   1   8   4   92.60    5.57
   1   8   5    6.06    0.73
   1   8   5    5.22    0.81
   1   8   5    5.37    1.45
   1   8   5    3.77    1.28
   1   8   5    4.99    0.76
   1   8   5    4.09    0.71
   1   8   6  132.04    7.74
   1   8   6  132.86    7.73
   1   8   6  126.98    9.37
   1   8   6  117.42    9.21
   1   8   6  130.72    7.71
   1   8   6  127.05    7.69
   1   8   7   39.21    2.89
   1   8   7   43.74    2.95
   1   8   7   39.39    3.02
   1   8   7   43.16    2.95
   1   8   7   44.82    2.94
   1   8   7   40.20    2.87
   1   8   8   19.18    1.61
   1   8   8   16.54    1.70
   1   8   8   20.92    1.67
   1   8   8   15.64    1.50
   1   8   8   17.89    1.60
   1   8   9   50.83    3.39
   1   8   9   52.84    3.38
   1   8   9   48.84    3.46
   1   8   9   51.01    3.33
   1   8  10   45.97    3.05
   1   8  10   47.98    3.14
   1   8  11    4.49    0.68
   1   8  11    5.72    0.66
   1   9  -3    5.43    0.53
   1   9  -2    2.83    0.85
   1   9  -2    1.60    0.38
   1   9  -2    3.03    0.45
   1   9  -1    3.55    0.59
   1   9  -1    4.16    0.55
   1   9   0   33.57    2.29
   1   9   0   32.95    2.15
   1   9   0   31.02    2.24
   1   9   1   34.77    2.43
   1   9   1   35.30    2.48
   1   9   1   34.15    2.36
   1   9   2   42.36    3.24
   1   9   2   41.96    2.90
   1   9   2   36.85    4.04
   1   9   3   71.27    5.83
   1   9   3   88.45    5.31
   1   9   3   84.34    5.20
   1   9   3   90.87    5.76
   1   9   4    1.42    1.05
   1   9   4    1.40    0.44
   1   9   4    2.29    0.59
   1   9   4    0.70    0.45
   1   9   5    5.77    1.46
   1   9   5    5.81    0.80
   1   9   5    6.40    0.91
   1   9   5    6.04    0.77
   1   9   6   41.89    3.96
   1   9   6   49.42    3.28
   1   9   6   50.06    3.32
   1   9   6   51.71    3.35
   1   9   7    3.54    0.63
   1   9   7    3.98    1.18
   1   9   7    3.53    0.70
   1   9   7    2.45    0.62
   1   9   8    9.80    1.06
   1   9   8   10.54    1.10
   1   9   8   13.31    1.14
   1   9   9    0.65    0.38
   1   9   9    0.36    0.32
   1   9   9    0.40    0.37
   1   9  10    6.63    0.62
   1  10  -1   20.41    1.34
   1  10   0   17.42    1.78
   1  10   0   21.93    1.47
   1  10   1    3.96    0.61
   1  10   1    4.56    0.96
   1  10   1    4.86    0.63
   1  10   1    4.49    0.54
   1  10   2   11.64    1.12
   1  10   2   11.65    1.53
   1  10   2   11.75    1.03
   1  10   3   18.51    1.99
   1  10   3   16.75    1.43
   1  10   3   19.57    1.55
   1  10   3   19.35    1.48
   1  10   4    1.28    0.48
   1  10   4    1.59    0.50
   1  10   4    0.48    0.79
   1  10   4    2.12    0.47
   1  10   5    5.50    0.81
   1  10   5    6.27    0.80
   1  10   5    5.70    1.23
   1  10   6   34.87    2.40
   1  10   6   32.63    2.89
   1  10   7   67.83    4.31
   1  10   7   70.57    4.36
   1  10   7   76.77    4.39
   1  10   7   72.78    4.93
   1  10   8   29.21    1.97
   1  10   8   29.82    1.99
   1  11   1    0.65    0.17
   1  11   2   12.32    0.86
   1  11   3   22.43    1.51
   1  11   3   22.29    1.46
   1  11   3   21.30    1.41
   1  11   4   12.10    0.99
   1  11   4   11.61    0.94
   1  11   5    7.29    0.71
   1  11   6   10.90    0.88
   1  11   7    1.59    0.29
   1  11   7    2.06    0.31
   2 -10  -6    1.97    0.67
   2 -10  -6    1.49    0.74
   2 -10  -5    1.29    0.92
   2 -10  -5    1.86    0.72
   2 -10  -5    2.70    0.78
   2 -10  -5    3.00    0.84
   2 -10  -5    3.01    0.78
   2 -10  -5    3.65    0.99
   2 -10  -4   26.87    2.59
   2 -10  -4   28.04    2.31
   2 -10  -4   24.82    2.24
   2 -10  -4   26.38    2.44
   2 -10  -3    1.29    1.10
   2 -10  -3    2.13    0.62
   2 -10  -3    1.70    0.76
   2 -10  -3    1.79    0.89
   2 -10  -3    1.53    0.76
   2 -10  -2   92.80    6.70
   2 -10  -2   96.68    6.28
   2 -10  -2  109.61    6.47
   2 -10  -2  106.83    6.30
   2 -10  -2  100.01    6.94
   2 -10  -2  102.81    6.62
   2 -10  -1   33.54    2.40
   2 -10  -1   30.79    3.30
   2 -10  -1   28.50    2.99
   2 -10  -1   27.93    2.72
   2 -10   0  181.77   10.31
   2 -10   0  152.12    9.82
   2 -10   1   32.99    2.82
   2 -10   1   29.34    2.43
   2  -9  -8   20.17    2.03
   2  -9  -7    0.90    0.62
   2  -9  -7    1.08    0.66
   2  -9  -7    1.24    0.80
   2  -9  -7    1.49    0.71
   2  -9  -6    2.28    1.77
   2  -9  -6    3.58    1.76
   2  -9  -6    2.55    0.88
   2  -9  -6    2.30    0.94
   2  -9  -6    2.22    0.85
   2  -9  -6    1.79    0.79
   2  -9  -5    1.37    0.80
   2  -9  -5    0.11    0.71
   2  -9  -5    0.20    0.67
   2  -9  -5    1.69    1.39
   2  -9  -5    1.07    0.93
   2  -9  -5    0.49    1.36
   2  -9  -4    6.96    1.22
   2  -9  -4    6.42    1.26
   2  -9  -4    6.41    1.18
   2  -9  -4    3.87    2.16
   2  -9  -4    8.26    2.50
   2  -9  -4    6.58    2.32
   2  -9  -4    8.13    1.46
   2  -9  -4    5.71    1.72
   2  -9  -3  144.81    8.25
   2  -9  -3  118.04    7.80
   2  -9  -3  131.34    7.92
   2  -9  -3  123.11    7.80
   2  -9  -3  118.72    8.53
   2  -9  -3  101.50   10.13
   2  -9  -3  107.07    9.98
   2  -9  -3  117.57    8.67
   2  -9  -2  118.72    7.39
   2  -9  -2  112.13    8.08
   2  -9  -2   91.86    9.41
   2  -9  -2   96.40    9.43
   2  -9  -2   94.18    8.09
   2  -9  -2  125.76    7.46
   2  -9  -2  129.58    7.51
   2  -9  -1   42.54    3.51
   2  -9  -1   44.37    4.22
   2  -9  -1   51.33    3.66
   2  -9  -1   51.05    3.70
   2  -9  -1   45.50    4.91
   2  -9  -1   51.87    3.91
   2  -9   0   49.35    4.54
   2  -9   0   53.72    3.92
   2  -9   0   51.02    5.22
   2  -9   0   64.35    4.29
   2  -9   1    3.59    1.80
   2  -9   1    1.71    2.50
   2  -9   1    4.87    1.50
   2  -9   2    3.73    0.80
   2  -9   2    7.43    1.69
   2  -9   2    3.26    2.30
   2  -9   2    3.83    1.22
   2  -9   3    0.25    0.75
   2  -8  -9   43.14    3.37
   2  -8  -8   11.70    1.37
   2  -8  -7    9.10    2.64
   2  -8  -7    9.09    2.45
   2  -8  -7   15.61    3.49
   2  -8  -7   10.49    1.36
   2  -8  -7   10.73    1.39
   2  -8  -7    9.24    1.30
   2  -8  -6    0.70    0.79
   2  -8  -6   -1.03    2.62
   2  -8  -6    2.09    1.72
   2  -8  -6    0.48    1.42
   2  -8  -6    0.42    1.24
   2  -8  -6    0.82    0.85
   2  -8  -6    0.42    0.78
   2  -8  -6   -0.21    0.68
   2  -8  -5   14.28    1.46
   2  -8  -5   21.27    2.03
   2  -8  -5   20.70    2.01
   2  -8  -5   20.51    5.81
   2  -8  -5   15.38    2.98
   2  -8  -5   19.14    3.68
   2  -8  -5   17.35    3.36
   2  -8  -5   23.92    2.38
   2  -8  -5   18.56    4.89
   2  -8  -5   19.36    4.96
   2  -8  -4   87.75    6.03
   2  -8  -4   94.53    6.04
   2  -8  -4  107.93    6.58
   2  -8  -4  105.40    6.52
   2  -8  -4   98.80    8.72
   2  -8  -4  106.93   12.67
   2  -8  -4  101.49    8.99
   2  -8  -4   87.92   10.81
   2  -8  -4   97.21   11.26
   2  -8  -4  124.66    7.05
   2  -8  -3    3.00    2.34
   2  -8  -3    3.63    0.78
   2  -8  -3    2.26    2.35
   2  -8  -3    3.79    2.61
   2  -8  -3    3.40    0.74
   2  -8  -3    4.08    1.05
   2  -8  -3    1.96    0.88
   2  -8  -3    3.82    2.05
   2  -8  -3    3.41    1.60
   2  -8  -3   -0.96    2.64
   2  -8  -3    2.06    1.49
   2  -8  -2  205.22   15.51
   2  -8  -2  239.65   14.37
   2  -8  -2  294.19   14.92
   2  -8  -2  239.38   14.31
   2  -8  -2  279.07   14.84
   2  -8  -2  248.41   15.78
   2  -8  -2  253.91   17.77
   2  -8  -2  255.34   17.80
   2  -8  -2  208.94   18.65
   2  -8  -2  220.80   18.86
   2  -8  -2  288.35   22.01
   2  -8  -1    0.23    1.50
   2  -8  -1    0.53    0.64
   2  -8  -1    1.30    0.86
   2  -8  -1    0.71    0.63
   2  -8  -1    0.34    0.70
   2  -8  -1    1.80    0.92
   2  -8  -1    2.12    2.79
   2  -8  -1    0.42    1.24
   2  -8  -1   -0.45    1.39
   2  -8  -1    1.78    1.46
   2  -8  -1    0.29    0.84
   2  -8   0   22.61    3.03
   2  -8   0   21.98    2.07
   2  -8   0   23.52    2.24
   2  -8   0   26.91    2.39
   2  -8   0   21.99    2.19
   2  -8   0   17.58    3.78
   2  -8   0   24.68    4.00
   2  -8   0   19.63    3.62
   2  -8   0   29.73    2.61
   2  -8   1    5.26    1.02
   2  -8   1    6.87    1.25
   2  -8   1    4.96    1.07
   2  -8   1    3.47    1.66
   2  -8   1    4.02    2.82
   2  -8   2    0.99    1.41
   2  -8   2    1.93    2.82
   2  -8   2    0.30    0.83
   2  -8   2    2.35    1.97
   2  -8   3    0.76    1.51
   2  -8   3    2.69    0.79
   2  -8   4   30.13    2.93
   2  -8   4   33.28    2.49
   2  -8   4   34.83    4.00
   2  -8   5   13.71    1.46
   2  -8   5   13.57    1.02
   2  -7  -9   26.53    2.46
   2  -7  -9   22.90    4.82
   2  -7  -8   72.55    4.79
   2  -7  -8   73.13    8.12
   2  -7  -8   71.84    7.53
   2  -7  -7   65.06    4.43
   2  -7  -7   67.20    7.68
   2  -7  -7   61.64    9.65
   2  -7  -7   59.13    6.97
   2  -7  -7   60.34    6.47
   2  -7  -7   67.37    4.45
   2  -7  -6    7.79    2.49
   2  -7  -6    6.30    1.99
   2  -7  -6    2.76    2.54
   2  -7  -6    6.53    1.30
   2  -7  -6    4.66    1.69
   2  -7  -6    7.25    4.18
   2  -7  -5    3.39    0.64
   2  -7  -5    2.93    0.67
   2  -7  -5    5.90    1.92
   2  -7  -5    0.90    2.48
   2  -7  -5    3.08    1.47
   2  -7  -5    7.05    3.63
   2  -7  -5    5.29    1.81
   2  -7  -5    0.81    3.14
   2  -7  -5   -0.81    3.03
   2  -7  -4   10.44    2.52
   2  -7  -4   13.58    4.88
   2  -7  -4   13.83    1.31
   2  -7  -4   12.11    1.24
   2  -7  -4   15.20    1.42
   2  -7  -4   10.88    2.58
   2  -7  -4   12.42    4.28
   2  -7  -4    9.50    3.56
   2  -7  -4    9.50    3.74
   2  -7  -4   12.25    2.59
   2  -7  -3   38.16    7.23
   2  -7  -3   46.06    5.08
   2  -7  -3   43.25    3.04
   2  -7  -3   47.49    3.06
   2  -7  -3   43.88    2.92
   2  -7  -3   43.40    3.11
   2  -7  -3   42.54    5.08
   2  -7  -3   33.47    6.73
   2  -7  -3   42.96    7.03
   2  -7  -3   26.91    6.01
   2  -7  -3   41.29    4.85
   2  -7  -2   -0.89    2.26
   2  -7  -2    1.34    0.59
   2  -7  -2    0.63    0.55
   2  -7  -2    0.18    0.44
   2  -7  -2    4.01    2.50
   2  -7  -2    1.78    1.38
   2  -7  -2    0.47    0.58
   2  -7  -2    1.45    2.26
   2  -7  -2    0.73    1.69
   2  -7  -1    0.85    2.34
   2  -7  -1    0.38    1.32
   2  -7  -1    0.63    0.55
   2  -7  -1    1.39    0.62
   2  -7  -1    0.81    0.60
   2  -7  -1    1.57    1.58
   2  -7  -1    2.92    2.27
   2  -7  -1    0.65    1.64
   2  -7  -1    0.65    1.66
   2  -7  -1    0.74    1.16
   2  -7   0    8.21    2.16
   2  -7   0    6.99    1.93
   2  -7   0    5.64    2.79
   2  -7   0    7.09    1.05
   2  -7   0    6.12    0.98
   2  -7   0    7.93    1.20
   2  -7   0    6.65    1.15
   2  -7   0    7.42    1.19
   2  -7   0    7.51    2.07
   2  -7   0    9.27    2.30
   2  -7   0    5.58    2.52
   2  -7   0    7.40    2.13
   2  -7   0    6.77    1.66
   2  -7   0    9.64    2.81
   2  -7   0    6.48    2.34
   2  -7   1   86.92    7.68
   2  -7   1   77.90    5.46
   2  -7   1   87.66    5.60
   2  -7   1   92.57    5.38
   2  -7   1   81.36    5.49
   2  -7   1   81.06    7.19
   2  -7   1   72.71    7.29
   2  -7   1   78.98    7.74
   2  -7   1   76.52    6.97
   2  -7   1   96.11    6.96
   2  -7   2   16.25    1.52
   2  -7   2   13.19    1.50
   2  -7   2   11.05    1.38
   2  -7   2    9.97    3.20
   2  -7   2    8.13    2.24
   2  -7   2   10.63    2.39
   2  -7   2   15.56    2.58
   2  -7   2   13.34    1.62
   2  -7   3   15.50    2.73
   2  -7   3   15.19    1.59
   2  -7   3   14.08    2.48
   2  -7   3   14.67    2.90
   2  -7   4    2.08    2.93
   2  -7   4    3.99    1.51
   2  -7   4    3.71    1.78
   2  -7   4    3.94    0.89
   2  -7   4    2.45    0.75
   2  -7   5    8.12    2.98
   2  -7   5    8.16    1.09
   2  -7   5    8.44    1.77
   2  -7   5    6.83    1.71
   2  -7   5    8.92    1.20
   2  -7   6   36.35    2.83
   2  -7   6   34.13    2.18
   2  -7   6   30.03    2.40
   2  -6  -8    2.11    1.74
   2  -6  -8    0.96    3.16
   2  -6  -7  410.94   23.09
   2  -6  -7  333.54   21.50
   2  -6  -6  502.55   37.44
   2  -6  -6  436.17   38.63
   2  -6  -6  685.43   35.49
   2  -6  -6  637.41   35.84
   2  -6  -5  389.79   21.53
   2  -6  -5  330.36   25.66
   2  -6  -5  298.91   26.68
   2  -6  -5  394.47   21.45
   2  -6  -5  388.56   24.01
   2  -6  -5  309.32   27.46
   2  -6  -5  413.13   23.87
   2  -6  -4   72.49    4.55
   2  -6  -4   76.20    4.56
   2  -6  -4   74.91    4.62
   2  -6  -4   79.71    8.14
   2  -6  -4   55.74    8.49
   2  -6  -4   73.26    6.44
   2  -6  -4   70.07    9.61
   2  -6  -4   72.62    6.37
   2  -6  -3    1.67    1.16
   2  -6  -3    0.79    2.60
   2  -6  -3    1.07    0.50
   2  -6  -3    1.37    0.51
   2  -6  -3    1.33    0.44
   2  -6  -3    2.01    0.59
   2  -6  -3    1.40    1.46
   2  -6  -3    0.73    1.99
   2  -6  -3    0.65    2.03
   2  -6  -3   -0.65    2.03
   2  -6  -3    1.70    1.22
   2  -6  -2  174.41   11.31
   2  -6  -2  170.69   15.15
   2  -6  -2  160.21    9.11
   2  -6  -2  158.84    9.08
   2  -6  -2  156.08    9.00
   2  -6  -2  154.18    9.11
   2  -6  -2  167.57   12.50
   2  -6  -2  122.82   13.32
   2  -6  -2  131.45   13.42
   2  -6  -2  123.40   13.02
   2  -6  -2  154.92   11.04
   2  -6  -1    1.12    0.51
   2  -6  -1    0.94    0.49
   2  -6  -1    1.02    0.44
   2  -6  -1    1.15    0.53
   2  -6  -1    0.41    1.95
   2  -6  -1    0.69    1.89
   2  -6  -1    0.63    1.95
   2  -6  -1    0.62    1.83
   2  -6  -1    1.48    1.38
   2  -6  -1    2.25    2.58
   2  -6  -1    0.95    0.69
   2  -6   0    7.25    1.74
   2  -6   0    5.93    3.19
   2  -6   0    7.64    1.88
   2  -6   0    5.37    1.42
   2  -6   0    6.79    0.90
   2  -6   0    6.89    0.90
   2  -6   0    5.71    0.83
   2  -6   0    8.96    2.03
   2  -6   0    7.31    2.18
   2  -6   0    4.48    2.51
   2  -6   0    7.02    1.86
   2  -6   0    4.04    2.10
   2  -6   0    4.65    2.36
   2  -6   1  227.35   14.13
   2  -6   1  201.54   14.19
   2  -6   1  200.50   16.13
   2  -6   1  188.73   15.84
   2  -6   1  223.45   12.73
   2  -6   1  232.25   12.74
   2  -6   1  213.83   12.53
   2  -6   1  220.80   12.65
   2  -6   1  226.21   14.86
   2  -6   1  212.33   14.29
   2  -6   1  195.17   16.48
   2  -6   1  226.65   14.76
   2  -6   1  223.97   14.95
   2  -6   2  609.01   37.58
   2  -6   2  682.47   37.93
   2  -6   2  613.39   37.64
   2  -6   2  594.75   39.11
   2  -6   2  668.91   37.20
   2  -6   2  606.38   37.36
   2  -6   2  653.22   35.60
   2  -6   2  620.73   35.54
   2  -6   2  691.16   35.68
   2  -6   2  620.32   35.54
   2  -6   2  646.57   38.15
   2  -6   2  633.87   38.76
   2  -6   2  631.31   38.72
   2  -6   3  410.04   20.96
   2  -6   3  397.22   23.35
   2  -6   3  341.79   20.67
   2  -6   3  381.83   22.39
   2  -6   3  347.62   20.72
   2  -6   4  557.62   29.82
   2  -6   4  507.82   31.43
   2  -6   4  503.66   32.08
   2  -6   4  497.95   31.78
   2  -6   5   14.60    1.59
   2  -6   5   13.81    1.59
   2  -6   5   10.86    2.45
   2  -6   5   15.87    2.69
   2  -6   5   16.34    3.96
   2  -6   6   60.29    4.03
   2  -6   6   54.34    4.69
   2  -6   7    2.02    0.66
   2  -6   7    2.30    0.60
   2  -6   7    1.67    0.95
   2  -6   7    2.53    0.46
   2  -6   7    2.96    0.44
   2  -6   8    3.15    0.31
   2  -5  -9   13.27    4.82
   2  -5  -8   66.72    8.14
   2  -5  -8   41.19    5.54
   2  -5  -7  202.25   17.69
   2  -5  -7  192.98   16.25
   2  -5  -6   39.89    3.95
   2  -5  -6   34.99    5.65
   2  -5  -6   51.76    7.35
   2  -5  -5   43.35    4.40
   2  -5  -5   38.74    5.77
   2  -5  -5   46.68    4.51
   2  -5  -5   52.34    3.11
   2  -5  -5   48.13    8.63
   2  -5  -4  151.12    9.80
   2  -5  -4  106.41   12.06
   2  -5  -4  162.91    9.96
   2  -5  -4  107.75   10.83
   2  -5  -4  126.99   14.29
   2  -5  -4  144.25   12.39
   2  -5  -3  121.76    7.09
   2  -5  -3  117.15    8.61
   2  -5  -3  118.70   11.82
   2  -5  -3  137.64    8.17
   2  -5  -3  137.56    8.95
   2  -5  -3  122.95   10.11
   2  -5  -3  102.50   11.02
   2  -5  -3  114.64   10.71
   2  -5  -2   83.83    8.43
   2  -5  -2   83.94    8.89
   2  -5  -2   71.03    8.33
   2  -5  -2   87.81    5.32
   2  -5  -2   93.33    5.28
   2  -5  -2  104.94    7.08
   2  -5  -2   96.20    9.75
   2  -5  -2   89.67    6.86
   2  -5  -2   92.78    6.38
   2  -5  -2  105.85    8.33
   2  -5  -2   71.71    8.71
   2  -5  -1  219.73   16.79
   2  -5  -1  249.24   13.60
   2  -5  -1  243.97   13.53
   2  -5  -1  240.86   13.65
   2  -5  -1  258.05   16.54
   2  -5  -1  197.05   17.57
   2  -5  -1  251.00   14.84
   2  -5  -1  240.14   18.47
   2  -5  -1  215.21   17.46
   2  -5  -1  208.94   17.34
   2  -5   0   30.89    3.36
   2  -5   0   29.58    5.30
   2  -5   0   31.30    2.15
   2  -5   0   31.25    2.14
   2  -5   0   30.92    2.10
   2  -5   0   29.47    2.05
   2  -5   0   27.60    3.85
   2  -5   0   20.19    4.50
   2  -5   0   32.33    3.39
   2  -5   0   29.11    4.87
   2  -5   0   29.80    4.92
   2  -5   1  169.25   13.84
   2  -5   1  174.71   13.91
   2  -5   1  178.28   10.27
   2  -5   1  183.66   10.22
   2  -5   1  178.20   10.29
   2  -5   1  163.61   12.66
   2  -5   1  167.86   14.31
   2  -5   1  177.88   11.83
   2  -5   1  184.44   11.98
   2  -5   2   52.72    4.67
   2  -5   2   48.44    4.49
   2  -5   2   45.70    5.03
   2  -5   2   52.65    3.39
   2  -5   2   48.23    5.80
   2  -5   2   44.67    5.68
   2  -5   2   52.65    3.37
   2  -5   2   48.97    3.36
   2  -5   2   51.81    3.28
   2  -5   2   56.91    6.57
   2  -5   2   51.33    3.37
   2  -5   2   56.15    4.81
   2  -5   2   42.79    4.47
   2  -5   2   52.41    4.87
   2  -5   3  320.34   19.38
   2  -5   3  291.43   20.56
   2  -5   3  307.00   18.85
   2  -5   3  287.36   19.26
   2  -5   3  290.95   17.29
   2  -5   3  323.05   17.34
   2  -5   3  319.18   17.29
   2  -5   3  308.95   20.28
   2  -5   3  286.50   20.00
   2  -5   3  281.78   18.66
   2  -5   4  219.99   14.51
   2  -5   4  208.65   13.96
   2  -5   4  206.45   14.20
   2  -5   4  210.43   14.27
   2  -5   4  215.12   12.05
   2  -5   4  223.03   14.42
   2  -5   4  199.44   14.66
   2  -5   4  185.89   13.33
   2  -5   4  201.06   12.03
   2  -5   5   -0.07    0.41
   2  -5   5   -0.35    1.02
   2  -5   5    1.12    0.61
   2  -5   5    0.92    3.12
   2  -5   5   -0.27    1.59
   2  -5   6  112.89    8.36
   2  -5   6  123.32    8.40
   2  -5   6  110.22    9.30
   2  -5   6  119.52    9.26
   2  -5   6  109.57    7.12
   2  -5   7    0.63    0.66
   2  -5   7   -0.70    1.31
   2  -5   7    0.19    0.40
   2  -5   7    0.18    0.58
   2  -5   8    6.71    0.69
   2  -5   8    7.35    1.33
   2  -5   8    7.18    0.73
   2  -5   8    6.35    0.96
   2  -5   9    1.04    0.22
   2  -4  -9  105.01   11.19
   2  -4  -8    9.41    3.31
   2  -4  -7  336.51   23.67
   2  -4  -7  330.53   24.34
   2  -4  -6    8.90    3.86
   2  -4  -6    3.53    2.68
   2  -4  -6    4.79    1.67
   2  -4  -6    4.48    1.26
   2  -4  -6    6.60    1.84
   2  -4  -6    4.97    2.44
   2  -4  -5   35.26    4.85
   2  -4  -5   34.05    3.79
   2  -4  -5   38.33    6.39
   2  -4  -5   49.44    6.05
   2  -4  -5   33.07    5.14
   2  -4  -5   41.91    3.60
   2  -4  -5   40.38    4.09
   2  -4  -5   30.58    3.32
   2  -4  -4  264.82   15.84
   2  -4  -4  272.53   15.85
   2  -4  -4  277.75   17.60
   2  -4  -4  293.73   20.37
   2  -4  -4  229.39   15.20
   2  -4  -4  303.00   18.60
   2  -4  -4  244.61   18.26
   2  -4  -3    5.79    2.44
   2  -4  -3    8.30    1.48
   2  -4  -3    6.60    1.12
   2  -4  -3    7.61    1.42
   2  -4  -3    9.75    2.20
   2  -4  -3    4.87    3.37
   2  -4  -3    7.69    2.25
   2  -4  -2   71.00    7.67
   2  -4  -2   75.99    5.67
   2  -4  -2   78.43    5.42
   2  -4  -2   73.12    7.29
   2  -4  -2   84.71    5.83
   2  -4  -2   82.16    6.72
   2  -4  -1  282.44   19.83
   2  -4  -1  272.52   15.85
   2  -4  -1  275.44   15.83
   2  -4  -1  302.57   19.68
   2  -4  -1  303.61   19.68
   2  -4  -1  321.72   19.53
   2  -4  -1  337.46   17.39
   2  -4  -1  342.03   20.65
   2  -4  -1  279.05   16.80
   2  -4   0  273.26   19.03
   2  -4   0  290.46   19.27
   2  -4   0  267.23   15.32
   2  -4   0  274.23   15.31
   2  -4   0  315.41   18.81
   2  -4   0  260.47   16.28
   2  -4   0  294.54   16.69
   2  -4   0  301.61   19.91
   2  -4   0  312.99   17.78
   2  -4   0  285.94   19.54
   2  -4   1 1059.75   57.06
   2  -4   1  959.08   55.61
   2  -4   1 1015.93   55.68
   2  -4   1 1015.79   55.67
   2  -4   1 1043.62   55.66
   2  -4   1  982.20   57.96
   2  -4   1 1018.38   60.17
   2  -4   1 1041.48   55.71
   2  -4   1 1151.00   60.97
   2  -4   1 1115.61   57.14
   2  -4   1 1012.31   56.83
   2  -4   1 1017.76   59.78
   2  -4   1  991.71   59.60
   2  -4   2   22.01    2.41
   2  -4   2   21.73    1.59
   2  -4   2   19.38    1.53
   2  -4   2   19.48    2.37
   2  -4   2   18.23    3.61
   2  -4   2   21.87    1.57
   2  -4   2   20.79    3.66
   2  -4   2   17.63    3.42
   2  -4   3    1.52    0.75
   2  -4   3    2.04    0.90
   2  -4   3    3.85    1.11
   2  -4   3    1.42    0.47
   2  -4   3    1.57    0.46
   2  -4   3    2.49    0.53
   2  -4   3    2.89    0.58
   2  -4   3    1.29    1.42
   2  -4   3    1.90    1.37
   2  -4   3    1.54    1.39
   2  -4   3    1.37    0.46
   2  -4   4   12.15    3.40
   2  -4   4   11.68    2.42
   2  -4   4   11.93    1.18
   2  -4   4    9.71    2.25
   2  -4   4    9.48    2.33
   2  -4   4   11.97    1.21
   2  -4   4   11.43    1.34
   2  -4   4    9.31    2.42
   2  -4   4   14.12    2.31
   2  -4   4   10.51    2.04
   2  -4   5   13.81    2.55
   2  -4   5   13.95    2.55
   2  -4   5   14.69    1.47
   2  -4   5   13.34    1.44
   2  -4   5   17.22    3.05
   2  -4   5   14.54    3.75
   2  -4   5   14.94    2.76
   2  -4   6   87.33    5.79
   2  -4   6   83.11    7.79
   2  -4   6   99.65    8.22
   2  -4   6   96.12    7.40
   2  -4   6   92.75    5.68
   2  -4   7   91.90    7.27
   2  -4   7  100.84    5.96
   2  -4   7   97.62    8.46
   2  -4   8    0.61    0.69
   2  -4   8   -0.48    0.66
   2  -4   8   -0.17    1.14
   2  -4   8    0.94    0.41
   2  -4   9    7.30    1.29
   2  -3  -9  351.96   25.96
   2  -3  -8    2.22    1.67
   2  -3  -8    3.56    1.91
   2  -3  -8    2.30    2.64
   2  -3  -7    2.60    1.56
   2  -3  -7    5.83    2.86
   2  -3  -7    5.21    1.90
   2  -3  -6  348.07   22.74
   2  -3  -6  398.18   21.72
   2  -3  -6  346.70   22.69
   2  -3  -6  414.27   26.91
   2  -3  -6  441.17   25.77
   2  -3  -6  334.44   21.64
   2  -3  -5  196.84   12.34
   2  -3  -5  183.72   11.25
   2  -3  -5  181.43   12.16
   2  -3  -5  210.25   15.44
   2  -3  -5  219.34   14.43
   2  -3  -5  163.98   11.37
   2  -3  -4    4.49    1.23
   2  -3  -4    5.33    1.78
   2  -3  -4    7.52    1.22
   2  -3  -4    4.87    2.28
   2  -3  -4    6.61    2.05
   2  -3  -4    6.30    1.32
   2  -3  -3    6.68    1.17
   2  -3  -3    6.81    1.22
   2  -3  -3    6.92    1.71
   2  -3  -3    8.27    1.01
   2  -3  -3    9.49    1.40
   2  -3  -3   10.93    3.07
   2  -3  -3    7.18    1.88
   2  -3  -3    8.01    2.18
   2  -3  -2   24.75    1.94
   2  -3  -2   20.92    3.22
   2  -3  -2   21.12    1.95
   2  -3  -2   22.31    4.07
   2  -3  -2   30.94    3.36
   2  -3  -2   25.92    3.68
   2  -3  -2   20.39    2.58
   2  -3  -2   20.05    1.92
   2  -3  -1  977.91   57.18
   2  -3  -1  896.86   56.97
   2  -3  -1  967.03   54.76
   2  -3  -1 1103.54   55.09
   2  -3  -1 1072.45   55.98
   2  -3  -1  811.87   56.70
   2  -3   0   71.11    6.49
   2  -3   0   71.25    5.44
   2  -3   0   74.39    4.94
   2  -3   0   62.92    4.67
   2  -3   0   79.10    7.03
   2  -3   1  721.32   37.23
   2  -3   1  732.09   39.57
   2  -3   1  621.32   36.21
   2  -3   1  768.49   39.71
   2  -3   1  704.46   39.11
   2  -3   1  707.65   39.08
   2  -3   2    2.01    0.57
   2  -3   2    1.66    0.37
   2  -3   2    1.46    1.62
   2  -3   2    2.58    1.54
   2  -3   2    2.14    0.41
   2  -3   2    2.19    0.39
   2  -3   2    2.78    0.79
   2  -3   2    3.20    1.81
   2  -3   2    2.68    0.84
   2  -3   3   75.53    5.20
   2  -3   3   78.93    4.43
   2  -3   3   70.81    4.38
   2  -3   3   73.16    4.40
   2  -3   3   75.88    5.32
   2  -3   3   66.77    6.98
   2  -3   3   73.90    4.37
   2  -3   3   64.21    6.54
   2  -3   3   79.27    7.00
   2  -3   4    7.05    0.78
   2  -3   4    6.96    0.78
   2  -3   4    6.66    0.76
   2  -3   4    7.44    0.86
   2  -3   4    7.60    1.19
   2  -3   4    5.71    2.01
   2  -3   4    9.32    2.27
   2  -3   4    9.78    2.30
   2  -3   4    6.49    0.71
   2  -3   5   26.67    3.37
   2  -3   5   21.80    1.87
   2  -3   5   30.17    3.85
   2  -3   5   24.50    3.54
   2  -3   5   29.20    2.08
   2  -3   5   32.15    4.18
   2  -3   5   29.17    3.41
   2  -3   5   33.68    4.18
   2  -3   6    3.17    1.76
   2  -3   6    2.52    1.31
   2  -3   6    1.57    0.66
   2  -3   6    1.85    0.64
   2  -3   6    0.39    1.07
   2  -3   6    0.55    2.78
   2  -3   6    1.65    1.38
   2  -3   6    1.34    1.15
   2  -3   7   24.18    2.15
   2  -3   7   25.33    2.05
   2  -3   7   25.15    3.23
   2  -3   7   20.71    3.36
   2  -3   7   25.07    2.26
   2  -3   8    1.43    1.34
   2  -3   8    0.93    0.45
   2  -3   8    2.24    0.79
   2  -3   8    0.97    0.48
   2  -3   8    1.91    0.78
   2  -3   9  218.78   12.33
   2  -3   9  191.03   11.50
   2  -3   9  191.99   11.15
   2  -3  10   39.81    2.51
   2  -2  -9  183.45   14.75
   2  -2  -9  196.34   15.01
   2  -2  -8    1.56    2.29
   2  -2  -8    0.23    0.63
   2  -2  -7   81.13    6.11
   2  -2  -6   14.51    2.05
   2  -2  -5  597.71   34.12
   2  -2  -4   97.40    6.79
   2  -2  -4  110.47    9.13
   2  -2  -4  100.45    6.39
   2  -2  -3  395.48   24.06
   2  -2  -3  369.79   22.79
   2  -2  -2  432.58   23.83
   2  -2  -2  381.97   22.15
   2  -2  -2  354.59   21.80
   2  -2  -1  404.51   29.41
   2  -2  -1  513.15   30.82
   2  -2  -1  655.39   29.38
   2  -2  -1  614.47   30.97
   2  -2  -1  469.52   28.68
   2  -2  -1  472.46   30.02
   2  -2   0  224.21   16.34
   2  -2   0  236.30   16.45
   2  -2   0  291.94   15.35
   2  -2   0  232.35   16.69
   2  -2   0  268.07   16.95
   2  -2   0  287.08   16.85
   2  -2   0  262.20   14.96
   2  -2   1  235.36   12.65
   2  -2   1  247.87   14.65
   2  -2   1  198.08   12.40
   2  -2   1  208.13   12.78
   2  -2   2  307.42   18.24
   2  -2   2  287.98   18.04
   2  -2   2  311.97   16.26
   2  -2   2  261.33   15.82
   2  -2   2  244.56   15.98
   2  -2   2  291.23   16.18
   2  -2   3   46.27    4.85
   2  -2   3   47.77    4.87
   2  -2   3   49.59    2.96
   2  -2   3   53.98    3.01
   2  -2   3   45.48    2.95
   2  -2   3   47.65    5.08
   2  -2   3   48.85    3.47
   2  -2   3   46.10    3.70
   2  -2   3   49.28    4.07
   2  -2   4   37.96    2.88
   2  -2   4   38.86    2.39
   2  -2   4   33.82    4.09
   2  -2   4   37.77    4.22
   2  -2   4   42.93    4.57
   2  -2   4   34.94    3.65
   2  -2   4   34.73    2.79
   2  -2   5   43.65    4.76
   2  -2   5   43.71    4.73
   2  -2   5   44.95    2.99
   2  -2   5   48.53    5.13
   2  -2   5   47.96    4.24
   2  -2   5   44.25    3.48
   2  -2   6   35.98    3.76
   2  -2   6   30.13    2.90
   2  -2   6   33.10    4.05
   2  -2   6   29.13    3.88
   2  -2   6   31.92    2.40
   2  -2   6   31.65    3.61
   2  -2   6   31.45    2.47
   2  -2   6   31.60    4.18
   2  -2   6   36.07    4.29
   2  -2   7    3.21    1.58
   2  -2   7    1.58    1.09
   2  -2   7    2.98    1.28
   2  -2   7    3.14    0.74
   2  -2   8    0.24    0.48
   2  -2   8   -0.31    0.64
   2  -2   8    0.64    1.31
   2  -2   8   -0.44    0.67
   2  -2   8   -0.34    1.00
   2  -2   9   -0.56    1.25
   2  -2   9    1.24    0.48
   2  -2   9    0.40    0.59
   2  -2   9    0.31    0.32
   2  -2  10   26.82    1.92
   2  -2  11    0.08    0.31
   2  -2  11   -0.16    0.24
   2  -1  -9    3.47    1.12
   2  -1  -9    4.59    1.36
   2  -1  -8  178.22   12.03
   2  -1  -7    1.40    0.82
   2  -1  -6    0.63    0.65
   2  -1  -6   -0.13    0.48
   2  -1  -6    1.37    1.25
   2  -1  -5   19.90    2.31
   2  -1  -4  199.62   12.84
   2  -1  -4  216.99   12.21
   2  -1  -3  611.57   35.92
   2  -1  -2  765.95   40.61
   2  -1  -2  644.51   40.40
   2  -1  -1  396.74   22.55
   2  -1  -1  355.17   22.58
   2  -1   0 5640.59  329.22
   2  -1   0 5770.81  329.25
   2  -1   0 6759.38  328.99
   2  -1   0 5811.66  329.36
   2  -1   1 3825.86  218.98
   2  -1   1 3775.20  218.93
   2  -1   1 3737.94  218.24
   2  -1   1 4120.39  217.50
   2  -1   1 4427.78  218.80
   2  -1   1 3877.75  219.17
   2  -1   2  451.79   28.52
   2  -1   2  452.95   28.51
   2  -1   2  462.57   28.72
   2  -1   2  490.94   27.70
   2  -1   2  521.32   27.29
   2  -1   3   -0.12    0.50
   2  -1   3    0.18    0.45
   2  -1   3    0.34    0.34
   2  -1   4  120.73    7.98
   2  -1   4  121.14    8.73
   2  -1   4  111.97    8.54
   2  -1   5 1285.57   69.13
   2  -1   5 1229.28   68.97
   2  -1   5 1286.82   69.30
   2  -1   5 1174.30   66.70
   2  -1   5 1281.05   67.07
   2  -1   5 1140.30   68.24
   2  -1   6  355.47   20.97
   2  -1   6  357.50   20.94
   2  -1   6  316.29   18.28
   2  -1   6  323.85   21.00
   2  -1   6  335.52   19.78
   2  -1   6  318.47   18.78
   2  -1   7    8.66    1.11
   2  -1   7    7.09    1.43
   2  -1   7    9.00    1.16
   2  -1   7    7.86    1.78
   2  -1   7    8.05    1.85
   2  -1   8   49.62    3.48
   2  -1   8   46.31    3.45
   2  -1   8   53.34    4.53
   2  -1   8   36.49    4.51
   2  -1   8   44.48    3.41
   2  -1   8   46.67    3.94
   2  -1   8   49.84    3.44
   2  -1   9   56.71    4.66
   2  -1   9   49.08    3.60
   2  -1   9   45.61    4.01
   2  -1   9   50.02    3.32
   2  -1   9   49.09    3.29
   2  -1  10   39.72    2.74
   2  -1  10   41.95    2.72
   2  -1  11   19.57    1.38
   2  -1  11   16.23    1.52
   2  -1  12    1.24    0.27
   2  -1  12    1.25    0.19
   2   0  -9   36.57    3.73
   2   0  -8   62.66    5.49
   2   0  -8   59.68    5.09
   2   0  -7   85.18    6.42
   2   0  -6  122.21    8.05
   2   0  -6  123.69    8.12
   2   0  -5    1.19    0.75
   2   0  -5    1.26    0.70
   2   0  -5    1.21    0.78
   2   0  -5    0.94    0.58
   2   0  -5    1.42    1.11
   2   0  -4  277.51   16.27
   2   0  -4  309.55   17.24
   2   0  -4  315.65   18.82
   2   0  -3    2.87    0.85
   2   0  -3    3.01    0.76
   2   0  -3    3.19    0.62
   2   0  -2   28.56    3.26
   2   0  -1  352.97   20.57
   2   0  -1  354.81   21.31
   2   0   0 1378.92   75.36
   2   0   0 1333.81   75.25
   2   0   0 1374.02   75.31
   2   0   0 1359.49   75.30
   2   0   1  667.11   39.41
   2   0   1  741.33   39.56
   2   0   1  695.82   39.45
   2   0   1  692.04   39.42
   2   0   2  402.12   24.14
   2   0   2  426.51   23.18
   2   0   2  402.56   24.12
   2   0   2  412.12   24.14
   2   0   3    2.64    0.55
   2   0   3    2.81    0.60
   2   0   3    2.47    0.56
   2   0   3    2.44    0.56
   2   0   3    3.01    1.16
   2   0   3    2.83    1.03
   2   0   3    3.20    1.10
   2   0   4   32.05    2.49
   2   0   4   27.83    2.75
   2   0   4   34.99    3.02
   2   0   5   50.15    3.08
   2   0   5   50.35    3.24
   2   0   5   52.01    4.31
   2   0   5   40.62    3.16
   2   0   5   50.97    3.37
   2   0   6   74.67    4.80
   2   0   6   69.04    4.62
   2   0   6   70.17    4.32
   2   0   6   65.10    4.39
   2   0   6   73.21    6.28
   2   0   6   79.99    6.45
   2   0   6   72.39    6.01
   2   0   6   70.43    5.26
   2   0   7   24.49    1.94
   2   0   7   20.51    2.67
   2   0   7   25.01    2.05
   2   0   7   25.58    2.78
   2   0   7   24.18    2.38
   2   0   8    6.51    0.96
   2   0   8    4.36    0.90
   2   0   8    5.16    1.54
   2   0   8    3.33    1.20
   2   0   8    4.35    0.90
   2   0   9   10.27    1.07
   2   0   9   10.21    1.13
   2   0   9    9.24    1.20
   2   0   9    9.39    1.70
   2   0  10    0.41    0.39
   2   0  10    0.28    0.90
   2   0  10    0.25    0.41
   2   0  11   10.80    1.03
   2   0  11   13.69    1.11
   2   0  12    5.24    0.50
   2   1 -10    5.11    1.25
   2   1  -9   14.68    2.14
   2   1  -8  296.81   21.20
   2   1  -8  416.06   21.63
   2   1  -7  346.75   21.53
   2   1  -7  355.14   25.28
   2   1  -7  389.29   22.05
   2   1  -6  186.92   11.47
   2   1  -6  194.27   11.58
   2   1  -5  491.86   27.93
   2   1  -5  479.74   27.90
   2   1  -4   24.02    2.56
   2   1  -4   21.83    1.97
   2   1  -4   23.00    2.57
   2   1  -4   27.17    2.45
   2   1  -4   27.23    3.43
   2   1  -4   23.78    2.62
   2   1  -4   24.34    3.25
   2   1  -3   23.34    2.05
   2   1  -3   25.35    2.75
   2   1  -3   26.01    2.04
   2   1  -3   25.16    3.13
   2   1  -3   21.22    2.61
   2   1  -3   28.03    3.27
   2   1  -2    0.52    0.79
   2   1  -2    1.50    0.68
   2   1  -2    0.22    0.87
   2   1  -2    0.70    0.84
   2   1  -2    1.37    0.50
   2   1  -2    0.65    0.84
   2   1  -1  207.97   12.39
   2   1  -1  255.93   13.46
   2   1  -1  204.44   12.62
   2   1  -1  238.60   13.21
   2   1  -1  203.61   12.59
   2   1  -1  193.94   11.71
   2   1  -1  199.17   11.75
   2   1  -1  192.37   11.73
   2   1   0  589.84   33.49
   2   1   0  609.10   34.04
   2   1   0  535.50   34.16
   2   1   0  589.67   33.58
   2   1   0  604.49   33.60
   2   1   0  641.58   33.51
   2   1   0  693.68   34.79
   2   1   1 1310.10   69.68
   2   1   1 1240.08   69.70
   2   1   1 1252.80   69.76
   2   1   1 1271.60   69.76
   2   1   2 9730.26  526.55
   2   1   2 9366.43  526.93
   2   1   2 9878.36  526.56
   2   1   2 9813.20  526.67
   2   1   2 9388.36  526.30
   2   1   2 9805.04  526.64
   2   1   2 9847.90  526.63
   2   1   3 5666.59  306.94
   2   1   3 5661.91  306.83
   2   1   3 5577.90  307.59
   2   1   3 5686.08  307.60
   2   1   3 5638.44  306.93
   2   1   3 5927.97  307.70
   2   1   3 5324.69  307.51
   2   1   4  480.22   24.52
   2   1   4  475.57   24.51
   2   1   4  390.97   23.00
   2   1   4  481.20   24.62
   2   1   4  394.69   23.00
   2   1   4  445.54   23.75
   2   1   5   77.11    4.76
   2   1   5   73.17    4.88
   2   1   5   86.02    6.18
   2   1   5   89.78    6.24
   2   1   6   48.36    3.38
   2   1   6   46.97    3.25
   2   1   6   43.27    3.54
   2   1   6   47.50    4.40
   2   1   7  148.15    9.17
   2   1   7  151.89    9.01
   2   1   7  166.79   11.41
   2   1   7  167.09    9.58
   2   1   7  157.69    9.41
   2   1   8   50.19    3.23
   2   1   8   38.71    2.74
   2   1   8   39.34    2.81
   2   1   8   41.11    3.44
   2   1   8   44.37    3.01
   2   1   9   -0.12    0.34
   2   1   9    0.29    1.00
   2   1   9    0.07    0.38
   2   1  10  448.96   25.37
   2   1  10  418.14   24.43
   2   1  10  466.85   24.65
   2   1  11  152.01    9.18
   2   1  11  177.22    9.04
   2   1  11  145.36    8.81
   2   1  11  142.33    9.51
   2   1  12  102.65    5.83
   2   2  -9   -0.15    1.16
   2   2  -8   22.87    4.29
   2   2  -7    5.08    1.34
   2   2  -7    4.88    1.30
   2   2  -6  167.06   12.25
   2   2  -6  210.04   12.44
   2   2  -6  200.50   12.38
   2   2  -5   17.30    2.21
   2   2  -5   18.47    3.69
   2   2  -5   22.37    2.45
   2   2  -4    8.16    1.27
   2   2  -4    5.52    1.27
   2   2  -4    8.52    1.40
   2   2  -4    7.08    1.26
   2   2  -4    8.23    1.18
   2   2  -4    8.05    1.34
   2   2  -4    6.38    1.25
   2   2  -4    8.00    2.39
   2   2  -3    7.88    1.43
   2   2  -3   10.01    1.09
   2   2  -3   10.90    1.61
   2   2  -3    8.05    1.20
   2   2  -3   10.80    1.45
   2   2  -3   10.27    2.08
   2   2  -3    9.78    1.52
   2   2  -3   10.69    1.56
   2   2  -2   32.82    3.07
   2   2  -2   33.31    2.73
   2   2  -2   32.66    2.60
   2   2  -2   31.65    3.07
   2   2  -2   33.65    2.81
   2   2  -2   33.53    3.12
   2   2  -1  244.92   14.75
   2   2  -1  233.77   14.31
   2   2  -1  245.23   14.76
   2   2  -1  253.40   14.42
   2   2  -1  235.14   15.52
   2   2  -1  257.31   14.79
   2   2   0   15.06    2.10
   2   2   0   11.41    1.65
   2   2   0   13.63    1.71
   2   2   0   14.84    1.69
   2   2   0   13.37    2.08
   2   2   0   13.04    1.70
   2   2   1  179.05   10.95
   2   2   1  173.66   10.99
   2   2   1  186.98   10.90
   2   2   1  193.71   11.07
   2   2   1  167.42   11.13
   2   2   2  542.34   29.28
   2   2   2  493.29   29.27
   2   2   2  523.73   29.34
   2   2   2  497.69   29.26
   2   2   2  522.49   29.13
   2   2   2  539.93   29.13
   2   2   3  285.98   15.76
   2   2   3  276.55   15.74
   2   2   3  263.27   15.96
   2   2   3  264.15   15.77
   2   2   3  279.46   16.03
   2   2   3  267.79   15.98
   2   2   4  105.52    6.76
   2   2   4  114.20    6.90
   2   2   4  116.59    7.13
   2   2   4   98.79    6.73
   2   2   4  125.06    7.66
   2   2   4  129.36    7.73
   2   2   5   23.93    1.88
   2   2   5   26.07    1.81
   2   2   5   27.09    2.23
   2   2   5   27.85    1.97
   2   2   5   25.90    1.94
   2   2   6    1.04    0.92
   2   2   6    0.53    0.44
   2   2   6    0.80    0.47
   2   2   7    2.99    1.48
   2   2   7    3.89    0.64
   2   2   7    3.21    0.80
   2   2   7    5.09    1.09
   2   2   7    4.20    0.93
   2   2   8   18.79    2.00
   2   2   8   17.83    1.77
   2   2   8   13.97    1.42
   2   2   8   14.46    2.83
   2   2   8   15.98    1.49
   2   2   9   85.55    5.58
   2   2   9   82.31    4.78
   2   2   9   68.85    4.59
   2   2  10   20.49    1.96
   2   2  10   23.32    2.46
   2   2  10   19.16    1.59
   2   2  10   23.99    1.86
   2   2  11   46.94    3.24
   2   2  11   43.33    3.54
   2   2  11   50.96    3.10
   2   2  11   39.61    2.76
   2   2  12   26.95    1.76
   2   2  12   32.36    2.18
   2   3  -9   69.92    4.80
   2   3  -8    2.96    1.99
   2   3  -8    2.95    0.95
   2   3  -8    1.62    1.09
   2   3  -7   17.09    4.00
   2   3  -7   15.30    2.54
   2   3  -7   15.50    2.26
   2   3  -6    2.86    1.10
   2   3  -6    2.59    2.13
   2   3  -6    2.06    0.93
   2   3  -5  199.17   12.81
   2   3  -5  215.24   12.96
   2   3  -5  185.48   12.70
   2   3  -4   11.84    1.81
   2   3  -4    8.00    1.47
   2   3  -4    8.14    1.34
   2   3  -3   33.58    3.17
   2   3  -3   34.57    3.11
   2   3  -3   33.59    2.99
   2   3  -3   42.28    3.39
   2   3  -3   31.75    2.92
   2   3  -3   27.36    2.81
   2   3  -2  361.16   22.23
   2   3  -2  422.56   22.28
   2   3  -2  378.73   22.26
   2   3  -2  426.31   25.01
   2   3  -2  386.29   22.32
   2   3  -2  364.23   22.05
   2   3  -2  378.84   21.82
   2   3  -1   14.92    1.72
   2   3  -1   18.97    2.03
   2   3  -1   15.20    1.62
   2   3  -1   16.74    1.74
   2   3  -1   18.14    2.05
   2   3  -1   15.28    1.73
   2   3  -1   17.50    1.98
   2   3   0 3099.88  168.97
   2   3   0 2855.45  169.32
   2   3   0 3106.18  169.22
   2   3   0 3097.03  169.63
   2   3   0 3053.64  169.60
   2   3   0 2960.15  169.42
   2   3   0 3173.77  169.46
   2   3   0 3385.46  171.07
   2   3   0 3281.13  169.67
   2   3   0 3314.28  171.01
   2   3   1   15.99    1.48
   2   3   1   16.11    1.78
   2   3   1   15.97    1.77
   2   3   1   14.57    1.73
   2   3   1   17.66    1.99
   2   3   1   14.00    1.96
   2   3   1   12.01    2.07
   2   3   2   86.99    5.89
   2   3   2  101.76    6.10
   2   3   2   83.85    5.98
   2   3   2   81.43    6.11
   2   3   2   85.75    5.46
   2   3   2   91.00    5.38
   2   3   3  363.07   20.97
   2   3   3  414.42   21.93
   2   3   3  377.24   21.82
   2   3   3  418.93   21.94
   2   3   3  419.25   22.10
   2   3   3  372.07   21.13
   2   3   3  390.67   21.86
   2   3   4  264.18   13.72
   2   3   4  238.35   13.40
   2   3   4  212.30   13.32
   2   3   4  223.98   12.58
   2   3   4  210.68   13.32
   2   3   4  231.64   12.94
   2   3   5  500.65   32.33
   2   3   5  614.28   32.56
   2   3   5  558.75   32.31
   2   3   5  640.97   32.62
   2   3   5  619.04   32.74
   2   3   5  567.94   32.22
   2   3   5  609.67   32.41
   2   3   6    4.45    0.66
   2   3   6    3.67    0.99
   2   3   6    5.00    1.25
   2   3   6    2.59    0.75
   2   3   7    2.79    1.15
   2   3   7    2.13    0.57
   2   3   8  908.86   50.33
   2   3   8  971.99   50.18
   2   3   8  861.86   50.07
   2   3   8  911.48   52.76
   2   3   9   30.45    2.19
   2   3   9   26.33    2.12
   2   3   9   26.69    2.33
   2   3  10   47.82    3.60
   2   3  10   52.20    3.36
   2   3  11   27.46    2.26
   2   3  12   19.08    1.69
   2   3  12   21.81    1.58
   2   4  -8    4.53    1.14
   2   4  -7   11.57    2.91
   2   4  -7    4.78    1.48
   2   4  -7   10.29    3.04
   2   4  -6   -0.84    1.52
   2   4  -6    0.63    1.85
   2   4  -5  119.14    9.02
   2   4  -5  132.50   12.30
   2   4  -5  138.75    9.30
   2   4  -4    9.94    2.18
   2   4  -4   12.18    1.96
   2   4  -4   12.67    2.05
   2   4  -4   13.45    2.11
   2   4  -4   11.11    3.45
   2   4  -4   11.78    1.77
   2   4  -3    0.93    1.28
   2   4  -3    0.40    0.68
   2   4  -3    0.34    0.61
   2   4  -3    0.14    0.55
   2   4  -3    0.38    0.77
   2   4  -3    0.99    0.59
   2   4  -3   -0.21    0.68
   2   4  -3    0.55    2.40
   2   4  -2   14.79    1.85
   2   4  -2   13.93    3.42
   2   4  -2   15.25    2.03
   2   4  -2   11.60    1.75
   2   4  -2   12.31    1.75
   2   4  -2   12.86    1.97
   2   4  -2   13.21    1.62
   2   4  -2   12.47    3.15
   2   4  -1 1012.43   52.35
   2   4  -1  978.14   52.37
   2   4  -1  851.60   51.78
   2   4  -1 1009.77   54.94
   2   4  -1  853.03   52.14
   2   4  -1  967.20   52.36
   2   4  -1  996.79   54.98
   2   4  -1  946.89   52.08
   2   4   0  161.89    9.92
   2   4   0  166.69   10.20
   2   4   0  167.77    9.76
   2   4   0  167.18   10.14
   2   4   0  147.65   11.51
   2   4   0  142.01    9.99
   2   4   0  158.80   10.14
   2   4   0  153.04   11.63
   2   4   0  160.85   10.05
   2   4   1    1.75    0.71
   2   4   1    0.80    0.44
   2   4   1    1.32    0.75
   2   4   1    0.95    0.75
   2   4   1    1.45    0.84
   2   4   1    1.95    0.71
   2   4   1    1.17    0.66
   2   4   1   -0.28    1.21
   2   4   1    1.42    0.50
   2   4   1    1.29    0.76
   2   4   2  321.93   17.44
   2   4   2  272.56   16.50
   2   4   2  305.79   16.42
   2   4   2  289.06   16.58
   2   4   2  292.06   17.25
   2   4   2  292.73   17.22
   2   4   2  285.49   17.21
   2   4   2  287.79   16.35
   2   4   2  287.09   17.41
   2   4   2  295.29   16.80
   2   4   3  301.19   16.03
   2   4   3  289.96   16.07
   2   4   3  290.00   16.28
   2   4   3  236.77   15.89
   2   4   3  276.16   16.88
   2   4   3  308.48   16.89
   2   4   3  275.18   16.86
   2   4   3  304.54   15.79
   2   4   3  304.08   16.85
   2   4   3  278.80   16.91
   2   4   4   34.79    2.20
   2   4   4   32.42    2.44
   2   4   4   30.16    2.79
   2   4   4   32.12    2.63
   2   4   4   30.91    2.80
   2   4   4   27.30    1.89
   2   4   4   32.71    2.94
   2   4   5  122.87    7.67
   2   4   5  125.83    8.19
   2   4   5  131.69    8.09
   2   4   5  122.34    7.65
   2   4   5  131.66    8.10
   2   4   5  116.75    7.72
   2   4   6   18.57    1.84
   2   4   6   20.38    2.12
   2   4   6   19.12    1.73
   2   4   6   17.16    1.93
   2   4   6   18.74    1.49
   2   4   6   16.58    1.98
   2   4   6   19.95    2.16
   2   4   7   13.09    1.28
   2   4   7   15.27    1.88
   2   4   7   13.71    1.31
   2   4   7   11.43    2.09
   2   4   7   13.48    1.52
   2   4   7   13.11    1.20
   2   4   8   67.32    4.77
   2   4   8   64.92    4.45
   2   4   8   58.73    5.87
   2   4   8   66.98    4.54
   2   4   8   73.84    4.37
   2   4   8   74.63    4.48
   2   4   8   66.60    4.34
   2   4   9   19.84    1.70
   2   4   9   21.14    2.18
   2   4   9   17.81    1.47
   2   4   9   18.45    1.81
   2   4   9   17.37    1.60
   2   4  10   45.03    3.18
   2   4  10   49.37    3.21
   2   4  10   44.00    3.37
   2   4  10   48.48    3.92
   2   4  11    9.37    1.19
   2   4  11    8.39    1.49
   2   4  12   40.99    2.54
   2   4  12   31.38    2.90
   2   4  13   32.48    2.00
   2   5  -7   14.26    1.79
   2   5  -6   78.24    5.80
   2   5  -6   76.53    8.27
   2   5  -6   79.65    8.35
   2   5  -6   89.89    6.18
   2   5  -5   48.39    4.76
   2   5  -5   58.12    4.71
   2   5  -5   54.42    4.71
   2   5  -5   56.47    7.22
   2   5  -5   51.54    6.98
   2   5  -4  270.18   17.48
   2   5  -4  290.19   17.28
   2   5  -4  286.91   17.38
   2   5  -4  262.70   17.49
   2   5  -4  270.57   17.18
   2   5  -4  319.49   21.66
   2   5  -4  321.24   21.66
   2   5  -3   32.16    3.54
   2   5  -3   33.64    3.55
   2   5  -3   41.13    3.92
   2   5  -3   35.59    3.55
   2   5  -3   46.56    6.28
   2   5  -3   46.34    6.28
   2   5  -2    1.72    0.85
   2   5  -2    7.07    1.56
   2   5  -2    2.06    1.54
   2   5  -2    2.45    1.04
   2   5  -2    2.02    0.85
   2   5  -2    0.79    0.86
   2   5  -2    2.36    0.87
   2   5  -2    4.84    2.62
   2   5  -2    5.39    2.56
   2   5  -1    8.99    1.70
   2   5  -1   11.29    2.62
   2   5  -1    9.33    2.81
   2   5  -1    8.19    1.37
   2   5  -1   11.66    1.75
   2   5  -1   10.04    1.83
   2   5  -1    5.55    1.34
   2   5  -1    8.46    1.57
   2   5  -1    3.65    1.13
   2   5  -1    6.49    1.38
   2   5  -1    9.38    2.95
   2   5  -1    8.54    1.45
   2   5   0  367.46   18.20
   2   5   0  331.15   21.02
   2   5   0  284.64   18.51
   2   5   0  280.47   18.44
   2   5   0  345.33   18.25
   2   5   0  280.95   18.28
   2   5   0  287.53   18.48
   2   5   0  297.21   18.48
   2   5   0  290.34   18.50
   2   5   0  360.27   20.43
   2   5   1   49.63    3.48
   2   5   1   51.59    3.20
   2   5   1   43.82    5.17
   2   5   1   39.46    3.76
   2   5   1   45.21    3.50
   2   5   1   40.71    3.50
   2   5   1   38.53    3.75
   2   5   1   47.61    3.98
   2   5   1   49.87    4.34
   2   5   1   41.04    3.67
   2   5   1   42.83    4.62
   2   5   2    1.26    0.61
   2   5   2    1.48    0.80
   2   5   2    0.86    0.74
   2   5   2    2.30    1.07
   2   5   2    0.52    1.39
   2   5   2    0.82    0.85
   2   5   2    1.97    0.76
   2   5   2    1.72    0.79
   2   5   2    1.44    0.73
   2   5   2    0.68    1.11
   2   5   2    1.03    0.98
   2   5   2    1.45    0.85
   2   5   2    1.23    0.82
   2   5   2    0.33    0.34
   2   5   3  173.83    9.77
   2   5   3  178.77    9.54
   2   5   3  169.64    9.84
   2   5   3  158.39   10.09
   2   5   3  168.66   10.64
   2   5   3  147.58   10.67
   2   5   3  163.67    9.43
   2   5   3  175.19   10.58
   2   5   3  163.02    9.80
   2   5   4  383.33   21.50
   2   5   4  379.42   21.23
   2   5   4  382.47   21.60
   2   5   4  401.69   22.64
   2   5   4  350.64   22.13
   2   5   4  409.05   22.67
   2   5   4  426.97   22.87
   2   5   5   20.54    2.08
   2   5   5   22.16    2.54
   2   5   5   24.05    2.52
   2   5   5   18.98    2.03
   2   5   5   21.45    2.44
   2   5   5   20.31    2.19
   2   5   6   -0.14    0.64
   2   5   6    0.18    0.62
   2   5   6    0.26    0.58
   2   5   6    1.17    0.42
   2   5   6    0.25    0.69
   2   5   6    0.36    0.77
   2   5   6    0.92    0.74
   2   5   7    0.46    0.40
   2   5   7   -0.10    0.65
   2   5   7   -0.06    0.40
   2   5   7   -0.29    0.87
   2   5   7   -0.43    0.74
   2   5   7    0.43    0.47
   2   5   7    0.57    0.49
   2   5   7   -0.15    0.56
   2   5   7    0.25    0.44
   2   5   8   25.56    2.19
   2   5   8   29.11    2.41
   2   5   8   28.30    2.58
   2   5   9   92.98    6.40
   2   5   9   89.73    6.54
   2   5   9   90.25    5.79
   2   5   9   98.51    6.16
   2   5   9  111.64    6.11
   2   5  10  109.93    7.65
   2   5  10  133.81    7.30
   2   5  10  117.80    7.02
   2   5  10  113.84    7.34
   2   5  10  120.79    7.88
   2   5  11   10.99    1.12
   2   5  11   10.10    1.56
   2   5  12   17.09    1.29
   2   5  12   14.54    1.25
   2   5  12   16.14    1.70
   2   5  13    0.47    0.35
   2   6  -6   14.87    1.78
   2   6  -5   61.96    5.23
   2   6  -5   82.54    8.12
   2   6  -5   74.26    7.18
   2   6  -5   84.97    5.65
   2   6  -4    3.32    1.58
   2   6  -4    2.53    1.02
   2   6  -4    2.91    2.10
   2   6  -4   -1.17    2.71
   2   6  -4    2.34    1.82
   2   6  -4    2.75    0.44
   2   6  -3    3.88    1.96
   2   6  -3    0.61    2.19
   2   6  -3    5.97    1.40
   2   6  -3    5.57    1.72
   2   6  -3   -0.61    1.79
   2   6  -3    5.06    1.48
   2   6  -3    3.84    1.16
   2   6  -3    3.26    0.53
   2   6  -2   33.86    5.73
   2   6  -2   43.41    4.08
   2   6  -2   48.84    4.17
   2   6  -2   44.50    5.60
   2   6  -2   44.67    4.24
   2   6  -2   43.15    4.34
   2   6  -1  112.83    7.85
   2   6  -1  115.30    7.60
   2   6  -1  107.86    6.12
   2   6  -1  133.34    9.92
   2   6  -1  111.67    7.21
   2   6  -1  109.69    7.43
   2   6  -1   71.82    6.86
   2   6  -1   96.66    7.61
   2   6  -1  113.54    7.59
   2   6  -1  106.55    6.11
   2   6  -1   94.93    7.08
   2   6  -1  100.06    7.12
   2   6   0   40.14    3.76
   2   6   0   40.44    2.63
   2   6   0   37.35    3.74
   2   6   0   50.01    4.64
   2   6   0   42.58    5.02
   2   6   0   46.96    3.57
   2   6   0   37.96    3.38
   2   6   0   42.38    3.64
   2   6   0   42.12    3.91
   2   6   0   37.57    3.80
   2   6   0   43.78    3.08
   2   6   0   41.76    3.91
   2   6   0   35.92    2.58
   2   6   1    3.29    1.15
   2   6   1    2.75    0.50
   2   6   1    4.66    1.33
   2   6   1    2.70    1.61
   2   6   1    3.25    1.09
   2   6   1    3.10    0.81
   2   6   1    3.45    1.12
   2   6   1    2.05    0.92
   2   6   1    3.77    0.82
   2   6   1    3.42    1.00
   2   6   1    1.85    0.97
   2   6   1    3.56    1.23
   2   6   1    2.54    0.50
   2   6   2    8.61    1.76
   2   6   2    6.15    1.25
   2   6   2   10.29    1.18
   2   6   2    9.07    1.21
   2   6   2    7.68    1.35
   2   6   2    6.94    1.51
   2   6   2    8.56    1.58
   2   6   2    8.60    1.07
   2   6   2    7.26    1.40
   2   6   2    9.08    1.35
   2   6   2    7.24    1.58
   2   6   2    9.77    1.71
   2   6   3    1.98    1.14
   2   6   3    0.09    0.71
   2   6   3    0.57    0.58
   2   6   3    1.11    0.66
   2   6   3   -0.26    0.80
   2   6   3    1.01    0.82
   2   6   3    0.59    0.67
   2   6   3    1.82    0.99
   2   6   3    0.95    0.81
   2   6   3    0.39    0.79
   2   6   4  535.79   31.64
   2   6   4  594.87   30.97
   2   6   4  509.73   30.56
   2   6   4  514.63   30.69
   2   6   4  634.23   32.30
   2   6   4  520.43   31.50
   2   6   4  612.88   32.42
   2   6   4  626.57   32.28
   2   6   5  107.62    7.33
   2   6   5   90.19    5.67
   2   6   5  108.42    7.52
   2   6   5   85.22    6.37
   2   6   5   93.95    5.68
   2   6   5  106.60    7.34
   2   6   5   94.20    6.49
   2   6   5   91.85    5.75
   2   6   5  110.96    5.93
   2   6   5   90.74    6.76
   2   6   6  117.05    7.02
   2   6   6  116.23    7.01
   2   6   6  134.99    8.83
   2   6   6  109.83    7.38
   2   6   6  121.69    7.97
   2   6   6  112.33    7.02
   2   6   6  125.94    8.71
   2   6   6  114.40    8.19
   2   6   6  129.65    7.20
   2   6   6  140.54    7.35
   2   6   7  176.13   10.80
   2   6   7  190.32   11.48
   2   6   7  155.82   11.31
   2   6   7  162.77   11.37
   2   6   7  172.86   10.27
   2   6   7  200.70   10.61
   2   6   7  197.09   10.64
   2   6   8    3.78    0.66
   2   6   8    4.98    1.40
   2   6   8    3.45    0.94
   2   6   8    3.80    0.70
   2   6   9    0.83    0.69
   2   6   9    2.52    0.60
   2   6   9    0.97    0.53
   2   6  10   28.39    2.72
   2   6  10   25.76    2.51
   2   6  10   27.80    2.08
   2   6  10   30.06    2.15
   2   6  11    0.11    0.77
   2   6  11    0.05    0.45
   2   6  12   91.99    5.19
   2   6  12   88.19    5.08
   2   6  12   89.49    5.11
   2   6  13    4.31    0.41
   2   7  -5    9.09    1.28
   2   7  -5   10.00    1.32
   2   7  -4   47.99    3.97
   2   7  -4   49.01    5.29
   2   7  -4   51.21    3.51
   2   7  -3   55.13    3.68
   2   7  -3   65.91    4.95
   2   7  -3   74.12    6.10
   2   7  -3   64.79    6.59
   2   7  -3   70.45    4.37
   2   7  -2    2.59    0.80
   2   7  -2    3.51    1.30
   2   7  -2    2.44    1.06
   2   7  -2    3.77    1.39
   2   7  -2    3.44    1.74
   2   7  -2    2.90    0.52
   2   7  -1    4.25    1.49
   2   7  -1    4.23    1.92
   2   7  -1    2.63    1.06
   2   7  -1    3.63    1.19
   2   7  -1    3.04    1.13
   2   7  -1    3.09    0.52
   2   7  -1    2.44    0.81
   2   7  -1    2.96    1.28
   2   7  -1    2.30    0.51
   2   7  -1    3.39    0.55
   2   7   0   76.40    6.12
   2   7   0   63.18    6.52
   2   7   0   63.80    5.30
   2   7   0   74.12    5.59
   2   7   0   66.99    4.06
   2   7   0   62.37    5.36
   2   7   0   70.17    4.51
   2   7   0   68.25    5.10
   2   7   0   59.40    5.47
   2   7   0   71.59    5.57
   2   7   0   66.03    4.46
   2   7   0   62.38    4.00
   2   7   0   56.05    5.10
   2   7   0   52.13    4.98
   2   7   1  147.45   10.62
   2   7   1  134.76   11.33
   2   7   1  158.92   10.51
   2   7   1  147.74   10.13
   2   7   1  171.09   10.82
   2   7   1  152.68    8.98
   2   7   1  163.36    9.34
   2   7   1  168.89    9.56
   2   7   1  141.52    9.84
   2   7   1  172.38   11.05
   2   7   1  165.07   10.77
   2   7   1  152.89    9.30
   2   7   1  153.91    8.95
   2   7   1  146.65   10.30
   2   7   1  150.86   10.35
   2   7   2  380.53   21.05
   2   7   2  418.78   23.03
   2   7   2  400.06   21.34
   2   7   2  398.80   21.52
   2   7   2  358.34   21.94
   2   7   2  395.32   22.94
   2   7   2  418.10   23.05
   2   7   2  358.51   21.25
   2   7   2  361.95   20.98
   2   7   2  338.61   22.44
   2   7   2  356.23   22.47
   2   7   3  361.76   20.69
   2   7   3  360.86   20.85
   2   7   3  346.47   21.40
   2   7   3  397.71   22.46
   2   7   3  359.89   22.05
   2   7   3  408.40   20.53
   2   7   3  351.69   20.39
   2   7   3  349.71   20.43
   2   7   3  365.96   20.50
   2   7   3  396.75   22.45
   2   7   4  160.67   10.66
   2   7   4  170.75    9.81
   2   7   4  137.70    9.26
   2   7   4  164.36   10.51
   2   7   4  178.25    9.26
   2   7   4  149.64    9.03
   2   7   4  160.38    9.19
   2   7   5   31.94    2.39
   2   7   5   40.06    3.98
   2   7   5   36.29    2.47
   2   7   5   32.91    3.52
   2   7   5   28.96    3.36
   2   7   5   33.10    3.17
   2   7   5   36.53    2.46
   2   7   5   35.61    3.85
   2   7   5   35.96    3.62
   2   7   5   41.55    2.59
   2   7   5   31.22    2.27
   2   7   6   45.82    2.95
   2   7   6   44.37    3.26
   2   7   6   40.94    3.73
   2   7   6   46.88    3.08
   2   7   6   43.15    2.95
   2   7   6   41.76    4.03
   2   7   6   38.78    3.98
   2   7   6   37.20    3.98
   2   7   7   53.35    3.83
   2   7   7   50.12    4.39
   2   7   7   57.33    3.47
   2   7   7   54.97    3.50
   2   7   7   53.74    3.45
   2   7   7   52.68    3.63
   2   7   7   42.57    4.39
   2   7   7   49.93    4.59
   2   7   8   -0.62    0.61
   2   7   8    0.84    0.47
   2   7   8    1.09    0.81
   2   7   8    0.33    0.37
   2   7   8   -0.35    1.07
   2   7   9   42.06    3.00
   2   7   9   47.07    2.92
   2   7   9   40.71    2.77
   2   7   9   36.86    2.68
   2   7   9   36.22    3.06
   2   7  10    4.34    1.08
   2   7  10    5.06    0.99
   2   7  10    4.31    0.70
   2   7  10    4.97    0.80
   2   7  10    5.07    0.75
   2   7  10    5.74    0.99
   2   7  11    2.95    0.57
   2   7  11    4.65    0.82
   2   7  11    2.33    0.77
   2   7  12   10.69    0.84
   2   7  12   10.96    0.87
   2   7  12    8.54    0.85
   2   8  -4   -0.28    0.59
   2   8  -4    0.41    0.48
   2   8  -3    0.35    0.68
   2   8  -3   -0.21    0.74
   2   8  -3   -0.24    0.45
   2   8  -3    0.06    0.24
   2   8  -3    0.07    0.47
   2   8  -2    8.59    1.18
   2   8  -2    6.93    1.40
   2   8  -2    8.06    1.39
   2   8  -2    7.41    1.00
   2   8  -2    7.08    0.75
   2   8  -1   24.89    1.79
   2   8  -1   20.95    2.39
   2   8  -1   24.98    2.03
   2   8  -1   26.63    2.25
   2   8  -1   20.66    2.48
   2   8  -1   22.64    3.48
   2   8  -1   23.10    2.01
   2   8  -1   23.40    1.71
   2   8   0  104.73    6.38
   2   8   0  107.76    7.83
   2   8   0  107.78    7.23
   2   8   0  108.64    6.62
   2   8   0  115.78    6.91
   2   8   0  103.89    7.33
   2   8   0  103.86    6.63
   2   8   0  108.71    6.38
   2   8   0  107.80    6.32
   2   8   1  829.29   45.21
   2   8   1  753.73   45.42
   2   8   1  847.22   45.24
   2   8   1  831.82   47.07
   2   8   1  724.91   45.95
   2   8   1  805.70   45.43
   2   8   1  844.60   45.71
   2   8   1  790.99   46.29
   2   8   1  863.03   47.53
   2   8   1  915.42   47.42
   2   8   1  782.80   46.87
   2   8   1  775.62   46.85
   2   8   1  871.35   47.34
   2   8   1  887.98   45.31
   2   8   2   59.19    5.27
   2   8   2   66.08    4.00
   2   8   2   63.12    5.53
   2   8   2   54.80    3.99
   2   8   2   57.74    4.22
   2   8   2   58.89    4.75
   2   8   2   72.07    5.78
   2   8   2   63.40    5.56
   2   8   2   59.41    3.90
   2   8   2   64.95    3.93
   2   8   2   56.56    5.20
   2   8   2   67.59    5.47
   2   8   3  565.78   35.75
   2   8   3  679.58   34.27
   2   8   3  672.24   36.51
   2   8   3  546.00   34.21
   2   8   3  571.10   34.46
   2   8   3  644.31   34.19
   2   8   3  636.29   36.07
   2   8   3  712.58   36.67
   2   8   3  618.54   36.02
   2   8   3  589.54   35.90
   2   8   3  627.26   34.13
   2   8   4   43.91    4.32
   2   8   4   33.51    2.47
   2   8   4   34.04    3.30
   2   8   4   38.22    2.59
   2   8   4   38.91    3.77
   2   8   4   39.23    4.14
   2   8   4   38.02    3.95
   2   8   4   37.24    2.53
   2   8   5    9.90    1.00
   2   8   5    8.93    1.02
   2   8   5    7.73    1.11
   2   8   5    7.09    1.58
   2   8   5    8.18    0.88
   2   8   5    7.66    1.68
   2   8   5    7.42    1.61
   2   8   5    8.77    1.80
   2   8   5    8.22    0.99
   2   8   6    1.27    0.62
   2   8   6    2.03    1.21
   2   8   6    0.99    0.82
   2   8   6    0.74    0.44
   2   8   6    1.44    0.52
   2   8   6    0.99    0.73
   2   8   6    0.25    0.68
   2   8   6    0.96    0.47
   2   8   7   19.63    2.50
   2   8   7   18.45    1.56
   2   8   7   18.39    1.57
   2   8   7   17.76    1.58
   2   8   7   19.72    1.64
   2   8   7   18.69    1.77
   2   8   8   19.96    2.44
   2   8   8   21.12    1.67
   2   8   8   24.15    1.77
   2   8   8   19.79    1.75
   2   8   8   19.93    1.59
   2   8   8   22.00    1.75
   2   8   8   19.22    1.58
   2   8   8   20.79    1.87
   2   8   9  166.94    9.65
   2   8   9  158.95    9.49
   2   8   9  177.58    9.68
   2   8  10  217.42   11.52
   2   8  10  200.99   11.44
   2   8  10  193.68   11.34
   2   8  10  213.93   11.49
   2   8  10  180.81   11.76
   2   8  11  207.01   11.61
   2   9  -2   78.25    4.33
   2   9  -2   64.17    4.81
   2   9  -1   33.57    2.16
   2   9  -1   29.83    2.71
   2   9   0   -0.52    0.93
   2   9   0    0.38    0.35
   2   9   0    0.30    0.31
   2   9   0    0.49    0.46
   2   9   0    0.59    0.31
   2   9   1    2.32    0.52
   2   9   1    1.35    0.47
   2   9   1    1.56    0.90
   2   9   1    1.45    0.56
   2   9   2   59.84    3.59
   2   9   2   47.91    3.61
   2   9   2   54.82    4.87
   2   9   3    0.28    0.38
   2   9   3   -0.24    0.75
   2   9   3   -0.06    0.46
   2   9   3   -0.29    0.93
   2   9   4   54.73    4.52
   2   9   4   62.35    3.89
   2   9   4   59.71    3.75
   2   9   4   62.05    5.44
   2   9   4   58.16    3.70
   2   9   5    5.25    0.71
   2   9   5    4.86    1.30
   2   9   5    3.43    0.59
   2   9   5    4.44    0.76
   2   9   5    3.78    1.22
   2   9   6   37.90    2.62
   2   9   6   35.84    3.36
   2   9   6   37.58    2.66
   2   9   6   39.65    2.66
   2   9   7   31.99    2.22
   2   9   7   27.42    2.08
   2   9   7   29.20    2.87
   2   9   7   31.18    2.20
   2   9   7   31.59    2.20
   2   9   8   -0.13    0.82
   2   9   8    0.05    0.37
   2   9   8    0.05    0.34
   2   9   8    0.58    0.42
   2   9   8   -0.24    0.40
   2   9   9    8.13    0.84
   2   9   9    7.53    0.82
   2   9  10    4.53    0.56
   2  10  -1   51.22    2.96
   2  10   0    0.84    0.29
   2  10   0    0.81    0.51
   2  10   1    2.08    0.41
   2  10   1    2.06    0.42
   2  10   1    1.43    0.64
   2  10   1    2.03    0.36
   2  10   2   26.90    2.49
   2  10   2   30.05    2.09
   2  10   2   31.90    2.04
   2  10   3   15.24    1.81
   2  10   3   16.69    1.31
   2  10   3   15.83    1.35
   2  10   3   16.48    1.31
   2  10   4    7.09    1.30
   2  10   4    8.69    0.85
   2  10   4    7.78    0.89
   2  10   4    8.55    0.89
   2  10   5    4.38    0.65
   2  10   5    4.85    1.07
   2  10   6    8.45    0.93
   2  10   6    9.91    1.40
   2  10   7   61.15    3.65
   2  10   7   58.82    3.63
   2  10   7   53.85    4.13
   2  10   8    0.81    0.36
   2  10   8    0.96    0.35
   2  11   3    0.13    0.21
   2  11   3   -0.06    0.18
   2  11   3    0.09    0.18
   2  11   4   95.75    5.43
   2  11   4   94.11    5.47
   2  11   5    0.06    0.26
   2  11   6    3.12    0.42
   2  11   6    2.92    0.42
   2  11   7    7.21    0.58
   2  11   7    6.07    0.54
   3 -10  -4    8.00    1.23
   3 -10  -3   20.14    1.73
   3 -10  -3   18.44    2.04
   3 -10  -2   22.46    1.92
   3 -10  -2   22.43    2.26
   3 -10  -1    3.40    0.75
   3 -10  -1    1.59    0.98
   3 -10   0   17.50    1.73
   3  -9  -7   29.06    2.45
   3  -9  -6  100.95    6.11
   3  -9  -6   94.96    6.11
   3  -9  -6   93.68    6.05
   3  -9  -6   99.75    6.34
   3  -9  -5   37.94    2.94
   3  -9  -5   38.70    2.99
   3  -9  -5   38.70    2.97
   3  -9  -5   45.58    3.34
   3  -9  -4   -0.09    0.65
   3  -9  -4    1.36    1.07
   3  -9  -4    0.10    0.65
   3  -9  -4   -0.85    0.92
   3  -9  -4    0.43    1.25
   3  -9  -4   -0.77    1.38
   3  -9  -3   30.85    3.01
   3  -9  -3   35.25    4.64
   3  -9  -3   32.27    4.50
   3  -9  -3   30.78    2.68
   3  -9  -3   36.11    2.82
   3  -9  -3   34.22    2.76
   3  -9  -3   36.86    3.02
   3  -9  -2    0.78    1.15
   3  -9  -2   -0.30    1.07
   3  -9  -2    0.82    0.75
   3  -9  -2    0.10    0.70
   3  -9  -2    0.58    0.65
   3  -9  -1   47.68    3.48
   3  -9  -1   46.19    3.96
   3  -9  -1   45.36    3.41
   3  -9  -1   50.08    3.57
   3  -9  -1   47.62    4.52
   3  -9  -1   54.15    3.83
   3  -9   0   14.04    2.40
   3  -9   0   17.71    2.14
   3  -9   0   15.43    1.60
   3  -9   0   16.78    2.94
   3  -9   0   18.64    1.84
   3  -9   1   47.00    4.03
   3  -9   1   55.62    4.83
   3  -9   2   13.24    2.46
   3  -9   3   23.72    1.88
   3  -8  -7   10.97    1.33
   3  -8  -7   11.69    1.42
   3  -8  -6   14.28    1.61
   3  -8  -6   13.37    1.58
   3  -8  -6   13.54    3.16
   3  -8  -6   10.54    2.61
   3  -8  -6   15.87    3.34
   3  -8  -6   14.97    1.81
   3  -8  -5   40.74    3.00
   3  -8  -5   33.14    4.89
   3  -8  -5   38.97    4.89
   3  -8  -5   33.46    2.52
   3  -8  -5   45.27    3.10
   3  -8  -5   47.06    3.44
   3  -8  -5   25.52    3.00
   3  -8  -4   52.88    3.43
   3  -8  -4   58.83    3.88
   3  -8  -4   50.07    3.51
   3  -8  -4   47.40    5.63
   3  -8  -4   40.75    4.08
   3  -8  -4   50.49    3.42
   3  -8  -4   51.43    8.13
   3  -8  -4   46.21    5.41
   3  -8  -3    0.36    0.51
   3  -8  -3    1.82    1.24
   3  -8  -3    1.38    1.51
   3  -8  -3    1.09    0.62
   3  -8  -3    0.40    1.24
   3  -8  -3   -0.86    2.20
   3  -8  -3    0.46    0.51
   3  -8  -2  109.79    6.67
   3  -8  -2   99.42    6.55
   3  -8  -2  126.31    7.12
   3  -8  -2  125.96    7.08
   3  -8  -2   89.14    7.44
   3  -8  -2  106.67    6.71
   3  -8  -2  113.04    9.60
   3  -8  -2   99.74    9.22
   3  -8  -2  104.82    9.33
   3  -8  -2   95.95    7.82
   3  -8  -1   34.34    2.64
   3  -8  -1   35.95    2.87
   3  -8  -1   30.66    2.55
   3  -8  -1   38.10    2.96
   3  -8  -1   36.40    2.88
   3  -8  -1   32.69    3.51
   3  -8  -1   26.19    4.12
   3  -8  -1   38.01    4.83
   3  -8  -1   41.87    5.00
   3  -8  -1   28.71    4.13
   3  -8   0    3.83    0.96
   3  -8   0    2.09    0.74
   3  -8   0    3.30    0.88
   3  -8   0    3.44    1.60
   3  -8   0    4.81    2.84
   3  -8   0    3.62    1.63
   3  -8   0    2.60    0.74
   3  -8   1   -0.94    1.92
   3  -8   1    1.16    1.35
   3  -8   1   -0.18    0.59
   3  -8   1   -0.70    2.86
   3  -8   1    0.11    0.69
   3  -8   2    1.55    2.68
   3  -8   2   -0.18    1.27
   3  -8   3    5.05    0.91
   3  -8   3    3.24    1.70
   3  -8   3    5.22    2.68
   3  -8   3    4.72    1.40
   3  -8   4    2.58    1.07
   3  -8   4    2.20    1.22
   3  -8   4    3.36    0.67
   3  -8   5   -0.64    0.52
   3  -7  -9   14.52    1.66
   3  -7  -7   92.99    8.53
   3  -7  -7   71.50    7.34
   3  -7  -7   89.36    5.58
   3  -7  -6    0.46    1.35
   3  -7  -6   -0.39    1.15
   3  -7  -6    0.50    0.75
   3  -7  -6   -0.34    0.99
   3  -7  -6    0.94    2.18
   3  -7  -5    4.16    0.80
   3  -7  -5    5.23    1.83
   3  -7  -5    0.87    2.22
   3  -7  -5    3.49    2.72
   3  -7  -5    2.14    1.30
   3  -7  -5    6.63    3.82
   3  -7  -5    3.62    0.68
   3  -7  -4    7.32    2.04
   3  -7  -4    8.46    3.94
   3  -7  -4   10.24    1.12
   3  -7  -4    9.89    1.11
   3  -7  -4   10.94    1.22
   3  -7  -4    4.86    3.07
   3  -7  -4    5.27    3.20
   3  -7  -4    8.76    3.67
   3  -7  -4    8.75    2.36
   3  -7  -3  319.37   19.89
   3  -7  -3  310.52   24.31
   3  -7  -3  309.35   16.96
   3  -7  -3  312.02   16.94
   3  -7  -3  297.52   16.79
   3  -7  -3  296.77   16.99
   3  -7  -3  223.21   22.81
   3  -7  -3  205.00   21.78
   3  -7  -3  251.59   22.74
   3  -7  -3  274.38   19.52
   3  -7  -2   -0.20    1.28
   3  -7  -2   -0.89    2.44
   3  -7  -2    0.16    0.52
   3  -7  -2    0.30    0.51
   3  -7  -2    0.06    0.42
   3  -7  -2    0.08    0.54
   3  -7  -2   -0.91    2.83
   3  -7  -2   -1.64    1.71
   3  -7  -2   -1.65    2.57
   3  -7  -2    0.75    1.17
   3  -7  -1   10.89    2.50
   3  -7  -1   11.25    2.13
   3  -7  -1    4.99    2.60
   3  -7  -1    9.72    1.18
   3  -7  -1    8.51    1.10
   3  -7  -1    7.54    1.02
   3  -7  -1    9.93    1.22
   3  -7  -1   13.28    2.81
   3  -7  -1    4.94    2.88
   3  -7  -1    5.98    2.73
   3  -7  -1   11.29    3.53
   3  -7  -1   11.28    2.57
   3  -7   0   15.84    2.88
   3  -7   0   13.08    2.42
   3  -7   0   10.43    3.23
   3  -7   0   13.31    1.43
   3  -7   0   11.72    1.34
   3  -7   0   12.62    1.32
   3  -7   0   10.36    2.45
   3  -7   0   16.53    4.14
   3  -7   0   11.86    2.15
   3  -7   0   11.53    2.58
   3  -7   0   10.76    3.29
   3  -7   0   12.77    3.45
   3  -7   1   -0.46    1.59
   3  -7   1    0.53    2.85
   3  -7   1    0.50    1.28
   3  -7   1   -0.51    1.18
   3  -7   1    1.63    0.71
   3  -7   1    3.11    0.78
   3  -7   1    2.24    0.83
   3  -7   1    2.00    0.70
   3  -7   1    1.13    0.62
   3  -7   1    1.77    1.17
   3  -7   1   -0.59    1.37
   3  -7   1    1.12    1.10
   3  -7   1    2.09    1.07
   3  -7   1    0.73    1.13
   3  -7   2   11.87    3.47
   3  -7   2   10.61    1.30
   3  -7   2   13.84    2.47
   3  -7   2   13.22    1.45
   3  -7   2   15.15    2.63
   3  -7   2   11.13    2.77
   3  -7   2   13.94    1.45
   3  -7   3   34.77    3.92
   3  -7   3   38.97    5.12
   3  -7   3   46.49    3.13
   3  -7   3   37.60    4.48
   3  -7   4   13.94    2.60
   3  -7   4   14.90    1.44
   3  -7   4   12.28    1.42
   3  -7   4   10.53    2.15
   3  -7   5    1.55    0.57
   3  -7   5    1.61    1.10
   3  -7   6    0.33    0.18
   3  -6  -8   23.32    4.25
   3  -6  -7  137.41   15.63
   3  -6  -7  214.33   14.28
   3  -6  -6   97.84   12.19
   3  -6  -6   86.43   11.31
   3  -6  -5   -0.76    2.93
   3  -6  -5    0.13    0.46
   3  -6  -5    0.89    2.77
   3  -6  -5   -0.32    0.99
   3  -6  -5   -0.34    0.99
   3  -6  -4   97.47    8.43
   3  -6  -4  105.93    6.30
   3  -6  -4  107.92    6.49
   3  -6  -4  109.96   12.21
   3  -6  -4  112.18    8.74
   3  -6  -4  107.80    6.43
   3  -6  -3    1.59    2.35
   3  -6  -3    1.59    2.35
   3  -6  -3    4.57    0.70
   3  -6  -3    4.20    0.76
   3  -6  -3    2.62    2.87
   3  -6  -3    6.77    3.41
   3  -6  -3    3.77    1.58
   3  -6  -3    3.48    1.59
   3  -6  -2  102.29    6.13
   3  -6  -2   82.98   10.63
   3  -6  -2   87.92   10.93
   3  -6  -2  104.87    6.05
   3  -6  -2   99.45    5.93
   3  -6  -2   97.67    6.14
   3  -6  -2   80.08   10.77
   3  -6  -2   98.98    8.12
   3  -6  -2  108.82    8.35
   3  -6  -2   96.83   11.40
   3  -6  -1   86.21    7.01
   3  -6  -1   75.33    7.09
   3  -6  -1  103.81    6.05
   3  -6  -1   95.07    5.95
   3  -6  -1  103.82    5.95
   3  -6  -1   97.72    5.85
   3  -6  -1  104.75    6.06
   3  -6  -1   69.18   10.07
   3  -6  -1   94.37   10.80
   3  -6  -1   86.27   10.44
   3  -6  -1  104.03    8.22
   3  -6  -1   94.43   11.14
   3  -6   0   -0.32    0.94
   3  -6   0    0.64    1.29
   3  -6   0    1.15    2.41
   3  -6   0    0.07    0.49
   3  -6   0    0.33    0.53
   3  -6   0    0.19    0.45
   3  -6   0    1.54    2.12
   3  -6   0   -0.32    1.00
   3  -6   0    3.52    2.53
   3  -6   0   -0.71    1.80
   3  -6   1    6.38    1.79
   3  -6   1    5.68    3.04
   3  -6   1    6.14    2.57
   3  -6   1    9.30    3.11
   3  -6   1    5.65    0.90
   3  -6   1    6.16    0.89
   3  -6   1    8.55    1.07
   3  -6   1    8.60    2.01
   3  -6   1    8.31    2.90
   3  -6   1    5.70    1.78
   3  -6   1    4.34    1.42
   3  -6   1    8.00    1.97
   3  -6   2   10.10    2.11
   3  -6   2   10.84    1.24
   3  -6   2    8.29    1.95
   3  -6   2    5.31    2.80
   3  -6   2   12.13    1.29
   3  -6   2    9.81    1.18
   3  -6   2   11.11    1.24
   3  -6   2   10.39    1.18
   3  -6   2    7.16    2.71
   3  -6   2    7.75    2.63
   3  -6   2    9.95    3.52
   3  -6   2    9.85    2.16
   3  -6   2   12.23    2.32
   3  -6   2   10.51    2.22
   3  -6   3   18.37    4.21
   3  -6   3   19.61    1.79
   3  -6   3   22.45    3.60
   3  -6   3   17.34    3.26
   3  -6   3   18.68    2.86
   3  -6   3   19.93    3.75
   3  -6   3   18.29    2.98
   3  -6   4   44.83    4.87
   3  -6   4   46.19    4.89
   3  -6   4   44.78    4.35
   3  -6   4   38.87    2.97
   3  -6   5   97.44    7.44
   3  -6   5   81.11    7.53
   3  -6   5  105.29    8.44
   3  -6   5   94.60    5.98
   3  -6   6   33.03    3.26
   3  -6   6   37.77    2.72
   3  -6   7   53.69    3.45
   3  -6   7   48.45    3.31
   3  -6   8   85.00    4.75
   3  -5  -8   79.50    9.89
   3  -5  -7  125.08   12.53
   3  -5  -7  115.01   12.52
   3  -5  -6  163.88   16.06
   3  -5  -6  161.02   16.34
   3  -5  -5  434.16   32.80
   3  -5  -5  488.44   29.64
   3  -5  -5  389.38   32.54
   3  -5  -4   17.89    1.42
   3  -5  -4   13.26    4.08
   3  -5  -4   19.96    2.78
   3  -5  -4   16.63    4.84
   3  -5  -4   16.88    2.69
   3  -5  -3   10.49    1.07
   3  -5  -3   16.14    2.44
   3  -5  -3   11.75    3.78
   3  -5  -3    9.66    3.84
   3  -5  -3   11.53    2.20
   3  -5  -3   12.07    1.83
   3  -5  -2  161.78    9.24
   3  -5  -2  157.25    9.19
   3  -5  -2  166.43   14.47
   3  -5  -2  193.97   11.49
   3  -5  -2  178.71   14.97
   3  -5  -2  161.12   11.10
   3  -5  -2  146.05   10.43
   3  -5  -1    1.36    2.00
   3  -5  -1   -0.68    2.12
   3  -5  -1    1.38    0.49
   3  -5  -1    1.52    0.45
   3  -5  -1   -0.69    2.36
   3  -5  -1    0.61    0.81
   3  -5  -1    0.25    0.94
   3  -5  -1    0.74    2.16
   3  -5  -1    6.34    2.46
   3  -5   0   48.07    3.31
   3  -5   0   54.49    5.06
   3  -5   0   56.05    3.43
   3  -5   0   57.09    3.43
   3  -5   0   54.55    7.49
   3  -5   0   51.75    4.90
   3  -5   0   52.32    4.68
   3  -5   0   61.91    7.79
   3  -5   0   49.31    7.00
   3  -5   0   60.29    7.77
   3  -5   1    0.20    1.19
   3  -5   1    0.45    2.36
   3  -5   1   -0.62    1.82
   3  -5   1   -0.62    1.94
   3  -5   1    0.41    0.48
   3  -5   1    0.11    0.42
   3  -5   1    0.33    0.46
   3  -5   1    0.49    0.45
   3  -5   1   -0.68    2.13
   3  -5   1   -0.52    0.85
   3  -5   1    0.75    1.00
   3  -5   2    3.05    1.16
   3  -5   2    2.62    1.44
   3  -5   2    2.31    2.62
   3  -5   2    3.14    0.67
   3  -5   2    2.52    0.59
   3  -5   2    2.82    0.60
   3  -5   2    3.90    0.73
   3  -5   2    2.49    1.83
   3  -5   2    2.21    1.82
   3  -5   2    4.46    2.39
   3  -5   2    4.58    1.41
   3  -5   3   21.95    2.86
   3  -5   3   22.29    1.84
   3  -5   3   21.11    3.07
   3  -5   3   22.59    4.27
   3  -5   3   22.29    4.22
   3  -5   3   22.88    1.89
   3  -5   3   24.08    1.89
   3  -5   3   24.74    1.90
   3  -5   3   24.37    1.88
   3  -5   3   16.57    2.70
   3  -5   3   24.94    3.18
   3  -5   3   24.52    4.06
   3  -5   3   18.48    3.61
   3  -5   4    2.48    1.21
   3  -5   4    0.91    1.89
   3  -5   4    1.81    0.60
   3  -5   4    3.27    1.70
   3  -5   4    0.41    1.29
   3  -5   4    1.40    0.56
   3  -5   4    2.39    1.79
   3  -5   4    2.16    0.80
   3  -5   4    3.19    1.69
   3  -5   5   31.49    2.41
   3  -5   5   27.63    3.78
   3  -5   5   21.88    3.76
   3  -5   5   23.64    4.99
   3  -5   5   33.35    4.12
   3  -5   5   30.90    2.39
   3  -5   6  148.63    9.10
   3  -5   6  146.10   11.42
   3  -5   6  165.62    9.47
   3  -5   6  161.21   10.63
   3  -5   6  172.47   11.09
   3  -5   7  137.21    8.10
   3  -5   7  153.44    8.52
   3  -5   7  122.56   10.07
   3  -5   8   42.93    2.98
   3  -4  -8   17.43    4.50
   3  -4  -6    1.87    2.04
   3  -4  -6    0.50    0.93
   3  -4  -5    0.59    2.55
   3  -4  -5    3.63    1.22
   3  -4  -5    3.69    1.21
   3  -4  -5    2.65    3.31
   3  -4  -5    4.80    2.66
   3  -4  -4   53.28    4.58
   3  -4  -4   59.08    4.83
   3  -4  -4   35.61    5.90
   3  -4  -4   58.27    4.18
   3  -4  -4   34.64    5.67
   3  -4  -4   34.74    6.96
   3  -4  -4   54.18    6.40
   3  -4  -4   34.56    6.01
   3  -4  -3    4.48    1.32
   3  -4  -3    2.18    0.69
   3  -4  -3    0.54    2.16
   3  -4  -3    3.34    1.06
   3  -4  -3    1.68    1.94
   3  -4  -3    3.11    2.24
   3  -4  -2   18.58    4.09
   3  -4  -2   28.89    3.07
   3  -4  -2   20.78    4.10
   3  -4  -2   20.79    4.17
   3  -4  -2   29.56    3.06
   3  -4  -2   28.99    4.87
   3  -4  -2   28.02    2.75
   3  -4  -2   25.82    2.44
   3  -4  -2   23.69    4.41
   3  -4  -1    3.50    2.02
   3  -4  -1    2.92    0.46
   3  -4  -1    3.09    1.10
   3  -4  -1    4.07    2.42
   3  -4  -1    3.25    2.39
   3  -4  -1    3.83    1.08
   3  -4   0    1.45    0.40
   3  -4   0    1.37    0.42
   3  -4   0    1.66    2.29
   3  -4   0    5.08    1.27
   3  -4   0    2.61    0.94
   3  -4   1  392.89   21.65
   3  -4   1  343.25   21.41
   3  -4   1  346.10   20.02
   3  -4   1  407.00   25.58
   3  -4   1  422.21   25.66
   3  -4   1  365.00   20.07
   3  -4   1  371.26   20.09
   3  -4   1  418.65   22.04
   3  -4   1  392.46   25.80
   3  -4   2   22.45    2.58
   3  -4   2   18.07    2.41
   3  -4   2   21.37    1.60
   3  -4   2   19.58    1.58
   3  -4   2   21.48    1.62
   3  -4   2   22.34    1.63
   3  -4   2   15.25    3.82
   3  -4   2   19.65    3.94
   3  -4   2   15.01    3.65
   3  -4   2   21.11    2.59
   3  -4   3   64.41    5.14
   3  -4   3   61.80    5.26
   3  -4   3   52.97    5.83
   3  -4   3   65.42    3.97
   3  -4   3   58.48    6.88
   3  -4   3   62.68    7.02
   3  -4   3   59.19    3.92
   3  -4   3   65.06    3.96
   3  -4   3   68.66    7.57
   3  -4   3   64.38    3.93
   3  -4   3   59.88    5.07
   3  -4   4    0.53    0.40
   3  -4   4   -0.23    1.33
   3  -4   4    0.26    0.86
   3  -4   4    0.18    0.39
   3  -4   4   -0.06    0.45
   3  -4   4   -0.12    0.50
   3  -4   4    0.45    0.47
   3  -4   4    0.37    0.54
   3  -4   4   -0.50    1.28
   3  -4   4    0.44    1.21
   3  -4   4   -0.45    1.31
   3  -4   5   13.74    2.98
   3  -4   5   12.47    1.26
   3  -4   5   14.03    2.82
   3  -4   5   15.01    2.88
   3  -4   5   14.21    1.39
   3  -4   5   11.52    1.47
   3  -4   5   11.59    2.89
   3  -4   5   12.58    2.39
   3  -4   5   19.64    4.22
   3  -4   6   -0.32    3.36
   3  -4   6   -0.28    1.89
   3  -4   6   -0.70    0.97
   3  -4   6    0.36    0.90
   3  -4   6   -0.33    0.60
   3  -4   6    0.42    0.58
   3  -4   6    0.42    0.97
   3  -4   6    0.34    0.86
   3  -4   6    0.46    1.28
   3  -4   7    4.82    0.93
   3  -4   7    4.73    1.71
   3  -4   7    4.53    1.60
   3  -4   7    7.35    0.94
   3  -4   8    0.09    0.54
   3  -4   8    0.18    0.54
   3  -4   9    0.86    0.94
   3  -4   9    1.00    0.34
   3  -4   9    0.37    0.42
   3  -4  10    0.04    0.12
   3  -3  -7   -0.68    2.33
   3  -3  -6    1.77    1.72
   3  -3  -6    4.52    2.35
   3  -3  -5    9.26    2.52
   3  -3  -5   18.13    2.43
   3  -3  -5   19.16    4.61
   3  -3  -5   15.13    3.25
   3  -3  -4   26.31    2.75
   3  -3  -4   17.21    3.23
   3  -3  -4   20.79    4.45
   3  -3  -4   19.50    3.12
   3  -3  -3  235.33   12.74
   3  -3  -3  195.28   16.28
   3  -3  -3  237.78   14.58
   3  -3  -2   80.83    8.36
   3  -3  -2   72.21    7.61
   3  -3  -2   61.85    7.03
   3  -3  -2   86.33    5.51
   3  -3  -1    0.12    0.21
   3  -3  -1    0.23    0.55
   3  -3  -1    1.62    1.83
   3  -3  -1   -1.04    1.86
   3  -3  -1    0.47    1.69
   3  -3  -1   -0.87    1.56
   3  -3  -1   -0.43    1.35
   3  -3   0    9.72    0.78
   3  -3   0    7.86    1.25
   3  -3   0    8.07    2.47
   3  -3   0   12.18    1.59
   3  -3   0   11.80    3.01
   3  -3   0   11.74    3.17
   3  -3   0    6.88    2.34
   3  -3   0    6.86    2.48
   3  -3   1  184.04   14.25
   3  -3   1  275.96   13.76
   3  -3   1  242.34   13.56
   3  -3   1  269.51   16.78
   3  -3   1  215.14   12.27
   3  -3   1  229.62   12.35
   3  -3   1  209.17   12.26
   3  -3   2   27.88    1.96
   3  -3   2   30.42    1.98
   3  -3   2   31.74    2.80
   3  -3   2   25.18    2.99
   3  -3   2   27.83    1.94
   3  -3   2   30.92    4.79
   3  -3   2   36.46    4.98
   3  -3   3   74.05    5.38
   3  -3   3   63.77    4.22
   3  -3   3   71.12    4.22
   3  -3   3   74.32    4.26
   3  -3   3   72.79    5.14
   3  -3   3   75.28    5.53
   3  -3   3   66.08    7.39
   3  -3   3   76.71    7.52
   3  -3   3   60.63    6.94
   3  -3   4   13.26    1.76
   3  -3   4   14.95    1.19
   3  -3   4   12.98    1.13
   3  -3   4   12.36    1.16
   3  -3   4   12.71    3.02
   3  -3   4    9.39    2.61
   3  -3   4   13.59    1.11
   3  -3   5   97.72    8.24
   3  -3   5   91.64    7.51
   3  -3   5   91.74    5.60
   3  -3   5   96.17    8.51
   3  -3   5   96.59    8.53
   3  -3   5   93.23    5.75
   3  -3   5   87.80    8.55
   3  -3   5  110.54    7.70
   3  -3   5   91.35    6.05
   3  -3   5   96.82    7.17
   3  -3   6   70.04    6.76
   3  -3   6   52.19    5.32
   3  -3   6   55.49    3.84
   3  -3   6   53.06    5.24
   3  -3   6   51.93    3.62
   3  -3   6   51.51    4.86
   3  -3   6   51.06    6.03
   3  -3   6   51.44    5.74
   3  -3   6   49.19    5.75
   3  -3   7    0.34    0.62
   3  -3   7    0.37    1.08
   3  -3   7    1.48    1.15
   3  -3   7    1.32    1.09
   3  -3   7    0.78    0.60
   3  -3   7    0.22    1.36
   3  -3   8  109.19    9.46
   3  -3   8  135.88    7.68
   3  -3   8  135.25    7.92
   3  -3   8  117.35    7.71
   3  -3   9    3.56    0.81
   3  -3   9    4.23    0.64
   3  -3  10   23.86    1.61
   3  -2  -7    9.65    3.32
   3  -2  -6   41.69    6.90
   3  -2  -6   34.01    5.48
   3  -2  -5   19.29    2.55
   3  -2  -5   18.71    3.63
   3  -2  -5   12.73    3.33
   3  -2  -4   20.70    3.36
   3  -2  -4   21.12    4.03
   3  -2  -3  205.81   14.55
   3  -2  -3  163.11   13.87
   3  -2  -3  193.21   12.64
   3  -2  -2   32.70    2.97
   3  -2  -2   31.25    4.29
   3  -2  -2   41.29    5.26
   3  -2  -2   39.48    5.12
   3  -2  -2   35.93    3.44
   3  -2  -2   32.64    3.96
   3  -2  -1  134.46   10.39
   3  -2  -1  133.99   10.40
   3  -2  -1  136.59   10.65
   3  -2  -1  132.17    9.92
   3  -2   0    1.12    1.40
   3  -2   0    2.61    1.77
   3  -2   0    1.80    0.65
   3  -2   0    0.92    1.19
   3  -2   0   -0.40    1.55
   3  -2   0   -0.47    1.61
   3  -2   1  611.70   36.47
   3  -2   1  633.91   36.59
   3  -2   1  600.78   32.88
   3  -2   1  575.94   33.71
   3  -2   1  701.16   36.26
   3  -2   1  574.75   36.54
   3  -2   1  573.76   35.16
   3  -2   2  143.94    8.44
   3  -2   2  157.13    8.49
   3  -2   2  150.06   11.52
   3  -2   2  143.87   11.37
   3  -2   2  147.29    8.43
   3  -2   2  150.53    9.26
   3  -2   2  155.60   11.76
   3  -2   2  170.12    9.53
   3  -2   2  146.11   10.20
   3  -2   3   37.35    2.47
   3  -2   3   37.05    2.50
   3  -2   3   38.83    2.48
   3  -2   3   42.61    2.55
   3  -2   3   40.45    3.07
   3  -2   3   39.55    3.35
   3  -2   4  129.09    7.72
   3  -2   4  129.01    7.95
   3  -2   4  150.94    7.82
   3  -2   4  143.99    7.88
   3  -2   4  155.31   11.15
   3  -2   4  133.78   10.70
   3  -2   4  141.79    8.99
   3  -2   4  131.01    7.70
   3  -2   4  142.35    9.53
   3  -2   5   84.25    7.65
   3  -2   5   94.23    7.84
   3  -2   5   80.23    4.87
   3  -2   5   86.52    7.92
   3  -2   5   81.63    6.87
   3  -2   5   82.92    5.51
   3  -2   6  422.39   23.96
   3  -2   6  389.62   22.56
   3  -2   6  403.20   25.23
   3  -2   6  390.14   25.07
   3  -2   6  375.66   21.95
   3  -2   6  383.42   25.36
   3  -2   6  412.30   23.96
   3  -2   6  416.51   23.42
   3  -2   6  389.13   22.23
   3  -2   7   12.39    2.67
   3  -2   7   11.28    2.53
   3  -2   7   11.63    1.26
   3  -2   7   10.67    2.07
   3  -2   7    6.52    1.01
   3  -2   7   10.36    2.08
   3  -2   7   10.59    1.72
   3  -2   7   10.15    1.30
   3  -2   8   -0.31    0.73
   3  -2   8    1.31    0.65
   3  -2   9    5.07    0.92
   3  -2   9    5.13    0.88
   3  -2  10   60.89    3.75
   3  -2  11    1.53    0.28
   3  -1  -8    0.53    0.82
   3  -1  -6   42.78    6.44
   3  -1  -6   44.25    3.76
   3  -1  -6   32.03    4.90
   3  -1  -5  218.67   15.79
   3  -1  -5  202.12   12.83
   3  -1  -4    4.32    1.20
   3  -1  -4    6.49    2.31
   3  -1  -4    4.32    1.88
   3  -1  -3  598.01   33.61
   3  -1  -3  496.84   33.61
   3  -1  -2   -0.28    1.10
   3  -1  -2    0.32    1.42
   3  -1  -2    0.83    1.29
   3  -1  -1    7.85    1.97
   3  -1  -1    8.99    2.07
   3  -1  -1   11.95    2.70
   3  -1  -1    9.29    1.32
   3  -1  -1    9.30    2.53
   3  -1  -1    6.14    1.48
   3  -1  -1   10.36    2.39
   3  -1   0  355.21   24.51
   3  -1   0  347.33   24.42
   3  -1   0  374.20   24.75
   3  -1   0  392.02   24.41
   3  -1   0  429.10   23.82
   3  -1   0  427.97   22.62
   3  -1   1   93.90    7.46
   3  -1   1  101.94    8.09
   3  -1   1   95.56    7.96
   3  -1   1   93.17    7.98
   3  -1   2  359.21   21.38
   3  -1   2  353.00   19.38
   3  -1   2  360.14   22.29
   3  -1   2  336.81   21.98
   3  -1   2  342.27   22.03
   3  -1   3   77.74    6.74
   3  -1   3   80.36    6.78
   3  -1   3   73.78    4.50
   3  -1   3   76.75    4.51
   3  -1   3   81.48    4.56
   3  -1   3   74.90    6.85
   3  -1   3   75.79    5.21
   3  -1   3   87.30    5.43
   3  -1   4   51.82    3.02
   3  -1   4   48.45    2.82
   3  -1   4   52.03    2.90
   3  -1   4   39.48    2.82
   3  -1   4   42.88    2.87
   3  -1   4   48.77    5.08
   3  -1   4   42.39    3.57
   3  -1   4   61.72    4.42
   3  -1   5    4.02    0.93
   3  -1   5    5.36    0.67
   3  -1   5    4.76    0.88
   3  -1   5    4.75    0.75
   3  -1   5    4.79    0.55
   3  -1   5    5.86    0.66
   3  -1   5    4.58    1.43
   3  -1   5    4.16    1.27
   3  -1   6  208.20   11.66
   3  -1   6  197.48   13.87
   3  -1   6  218.85   14.16
   3  -1   6  177.09   11.18
   3  -1   6  199.29   14.19
   3  -1   6  187.84   13.19
   3  -1   6  197.72   12.18
   3  -1   6  193.13   11.34
   3  -1   7   22.87    3.45
   3  -1   7   21.46    3.41
   3  -1   7   17.70    1.58
   3  -1   7   16.19    2.45
   3  -1   7   17.80    2.42
   3  -1   7   10.93    1.37
   3  -1   7   17.93    1.67
   3  -1   7   15.40    1.96
   3  -1   8    1.65    0.70
   3  -1   8    0.56    0.83
   3  -1   8    2.25    1.28
   3  -1   8    1.55    0.55
   3  -1   8    1.30    1.07
   3  -1   8    2.42    0.75
   3  -1   9    0.92    0.69
   3  -1   9    1.13    0.98
   3  -1   9    0.62    0.61
   3  -1   9    0.72    0.52
   3  -1  10    6.05    0.76
   3  -1  10    6.39    0.81
   3  -1  11    7.68    0.73
   3   0  -9   82.46    6.32
   3   0  -8    2.44    1.10
   3   0  -7    0.45    0.69
   3   0  -6  136.95    9.20
   3   0  -6  138.29    9.27
   3   0  -5   25.79    2.86
   3   0  -5   23.30    4.05
   3   0  -5   17.57    2.79
   3   0  -5   22.75    3.78
   3   0  -5   15.40    2.64
   3   0  -4  405.57   23.28
   3   0  -4  430.51   25.91
   3   0  -3   21.86    3.34
   3   0  -3   23.72    3.80
   3   0  -3   23.38    2.71
   3   0  -2   54.88    5.09
   3   0  -2   61.93    6.15
   3   0  -2   53.48    5.33
   3   0  -2   50.63    4.76
   3   0  -1  197.00   11.63
   3   0  -1  198.10   12.97
   3   0  -1  150.25   11.47
   3   0  -1  161.81   11.11
   3   0  -1  152.72   11.00
   3   0  -1  164.02   11.23
   3   0   0   79.50    6.09
   3   0   0   70.41    5.90
   3   0   0   75.49    6.04
   3   0   0   73.09    6.22
   3   0   0   82.26    4.88
   3   0   1   22.85    2.97
   3   0   1   23.73    2.98
   3   0   1   19.54    2.80
   3   0   1   26.29    2.14
   3   0   1   24.63    3.13
   3   0   1   21.59    1.91
   3   0   2  237.60   13.37
   3   0   2  258.08   15.58
   3   0   2  248.88   15.44
   3   0   2  235.89   15.32
   3   0   2  280.33   15.62
   3   0   3   14.96    1.02
   3   0   3    9.47    1.58
   3   0   3   10.58    1.62
   3   0   3   14.24    2.28
   3   0   3   15.83    1.60
   3   0   3   11.32    2.06
   3   0   3   11.00    2.09
   3   0   4    8.50    1.16
   3   0   4    6.49    0.96
   3   0   4    9.36    1.21
   3   0   4    9.16    0.78
   3   0   4    9.74    1.95
   3   0   4   11.35    2.00
   3   0   4    9.07    0.85
   3   0   4    8.21    0.74
   3   0   4    7.33    1.00
   3   0   4   11.76    2.09
   3   0   4    8.43    1.04
   3   0   4    4.67    1.38
   3   0   5   21.60    1.98
   3   0   5   20.01    1.80
   3   0   5   17.81    1.38
   3   0   5   18.90    1.63
   3   0   5   19.40    1.52
   3   0   5   20.67    1.38
   3   0   5   14.37    2.19
   3   0   5   18.49    2.88
   3   0   5   20.42    2.54
   3   0   5   21.87    2.96
   3   0   5   19.71    2.82
   3   0   6    1.07    0.52
   3   0   6    0.69    0.69
   3   0   6    1.98    1.19
   3   0   6    1.26    0.98
   3   0   6    0.97    0.63
   3   0   7   60.52    4.27
   3   0   7   59.88    4.13
   3   0   7   57.12    3.86
   3   0   7   62.41    3.78
   3   0   7   60.10    5.77
   3   0   7   48.76    4.61
   3   0   7   63.28    4.75
   3   0   7   45.12    3.64
   3   0   7   71.13    6.40
   3   0   7   69.09    6.33
   3   0   8    5.05    0.94
   3   0   8    5.92    1.60
   3   0   8    2.52    0.62
   3   0   8    2.75    1.14
   3   0   8    4.43    0.87
   3   0   9   12.86    1.46
   3   0   9   11.21    1.16
   3   0   9   17.08    1.62
   3   0   9   11.86    1.17
   3   0   9   11.11    1.80
   3   0   9   12.40    1.35
   3   0  10    7.55    1.50
   3   0  10   10.70    1.12
   3   0  10   10.26    1.02
   3   0  11   22.24    1.66
   3   0  11   26.66    1.80
   3   0  12    0.71    0.18
   3   0  12    0.61    0.36
   3   1  -8    0.97    1.34
   3   1  -7   87.58    6.78
   3   1  -6    4.36    1.16
   3   1  -6    5.28    1.25
   3   1  -5    0.74    0.67
   3   1  -5   -0.21    0.75
   3   1  -4   11.82    2.86
   3   1  -4   13.78    2.28
   3   1  -4   16.23    3.00
   3   1  -4   12.08    2.14
   3   1  -4   14.45    2.23
   3   1  -3  225.79   14.47
   3   1  -3  236.50   15.69
   3   1  -3  249.47   14.42
   3   1  -3  270.71   17.23
   3   1  -3  226.65   15.63
   3   1  -3  286.51   17.13
   3   1  -2  420.19   26.31
   3   1  -2  436.56   27.04
   3   1  -2  548.21   28.97
   3   1  -2  432.44   27.05
   3   1  -2  506.39   28.22
   3   1  -1  515.28   30.52
   3   1  -1  489.47   30.88
   3   1  -1  557.63   29.99
   3   1  -1  534.53   30.03
   3   1  -1  557.28   30.08
   3   1  -1  493.87   30.65
   3   1  -1  473.14   30.42
   3   1  -1  584.72   30.48
   3   1  -1  471.39   31.92
   3   1  -1  500.25   30.92
   3   1  -1  599.99   32.03
   3   1   0   65.08    5.68
   3   1   0   73.33    5.12
   3   1   0   65.22    5.70
   3   1   0   81.54    6.45
   3   1   0   69.64    5.17
   3   1   0   73.46    5.23
   3   1   0   81.56    5.28
   3   1   0   72.73    5.90
   3   1   1   65.39    4.23
   3   1   1   51.20    4.12
   3   1   1   64.14    5.19
   3   1   1   52.18    4.20
   3   1   1   54.00    4.22
   3   1   1   55.31    4.00
   3   1   1   52.84    3.90
   3   1   1   44.72    4.55
   3   1   2  158.99   10.61
   3   1   2  150.47   10.48
   3   1   2  162.37   10.53
   3   1   2  157.95   10.58
   3   1   2  162.71   10.50
   3   1   2  154.03    9.96
   3   1   2  173.62    9.28
   3   1   2  173.44   10.16
   3   1   3   10.71    0.83
   3   1   3   12.41    1.89
   3   1   3   11.00    1.76
   3   1   3   10.63    1.48
   3   1   3    7.03    1.68
   3   1   3   10.68    1.50
   3   1   3    9.45    1.65
   3   1   3   10.93    1.56
   3   1   4  213.17   14.11
   3   1   4  223.01   14.14
   3   1   4  227.70   12.52
   3   1   4  225.89   13.09
   3   1   4  261.40   13.12
   3   1   4  210.99   13.02
   3   1   4  195.28   13.95
   3   1   4  216.47   13.19
   3   1   4  239.54   14.34
   3   1   4  222.44   13.21
   3   1   5    0.38    0.40
   3   1   5    0.30    0.30
   3   1   5    3.21    0.53
   3   1   5    0.45    0.29
   3   1   5    0.85    0.47
   3   1   5    1.72    0.99
   3   1   5    0.49    0.63
   3   1   5    0.93    0.97
   3   1   5    0.47    0.88
   3   1   6   74.69    4.53
   3   1   6   69.17    4.79
   3   1   6   77.13    6.40
   3   1   6   83.30    6.54
   3   1   6   69.11    4.63
   3   1   7   36.51    3.00
   3   1   7   36.71    2.79
   3   1   7   37.88    3.15
   3   1   7   42.01    2.90
   3   1   7   45.84    3.72
   3   1   7   46.72    4.79
   3   1   7   40.78    4.53
   3   1   8   43.06    3.01
   3   1   8   44.54    3.41
   3   1   8   43.95    3.54
   3   1   8   40.49    2.98
   3   1   9   12.35    1.25
   3   1   9   11.66    1.34
   3   1   9   11.45    1.75
   3   1   9   12.27    1.12
   3   1  10   22.87    2.51
   3   1  10   26.26    1.88
   3   1  10   25.07    2.03
   3   1  10   26.91    1.91
   3   1  11   17.14    1.34
   3   1  11   19.92    1.57
   3   1  11   18.63    2.05
   3   1  11   19.78    1.73
   3   1  12   50.15    3.23
   3   2  -9    2.00    0.79
   3   2  -8   12.20    2.81
   3   2  -7  170.80   11.09
   3   2  -7  147.33   13.10
   3   2  -6   21.39    2.93
   3   2  -6   31.16    3.18
   3   2  -6   27.70    2.99
   3   2  -6   19.40    4.17
   3   2  -5  474.64   27.83
   3   2  -5  475.66   27.86
   3   2  -4    0.65    0.64
   3   2  -4    1.11    0.70
   3   2  -4    0.41    0.47
   3   2  -4    0.42    0.73
   3   2  -4   -0.21    0.79
   3   2  -4    0.97    0.73
   3   2  -4   -0.21    0.65
   3   2  -3    1.10    0.84
   3   2  -3    3.30    1.66
   3   2  -3    1.36    0.95
   3   2  -3    2.84    0.81
   3   2  -3    3.16    1.69
   3   2  -3    2.07    2.15
   3   2  -3    2.81    1.77
   3   2  -2   30.41    2.78
   3   2  -2   23.48    3.04
   3   2  -2   35.03    4.00
   3   2  -2   26.54    3.12
   3   2  -2   24.49    2.47
   3   2  -2   19.90    3.45
   3   2  -2   25.45    3.05
   3   2  -2   25.47    2.54
   3   2  -1  454.30   25.89
   3   2  -1  435.64   25.80
   3   2  -1  409.02   24.93
   3   2  -1  430.78   26.24
   3   2  -1  447.44   26.34
   3   2  -1  425.12   25.70
   3   2  -1  449.40   25.34
   3   2   0  525.81   32.14
   3   2   0  537.62   32.15
   3   2   0  515.95   32.02
   3   2   0  601.59   32.17
   3   2   0  591.52   32.34
   3   2   0  532.70   31.97
   3   2   0  585.58   32.37
   3   2   1  135.80    9.60
   3   2   1  154.05    8.25
   3   2   1  134.94    8.43
   3   2   1  138.13    8.44
   3   2   1  155.63    9.27
   3   2   1  141.20    9.26
   3   2   2  148.03   10.08
   3   2   2  155.56    8.92
   3   2   2  159.78   10.17
   3   2   2  169.57    9.59
   3   2   2  156.63    9.80
   3   2   2  159.98   10.05
   3   2   2  155.47    9.58
   3   2   2  158.64    9.59
   3   2   3  344.25   19.25
   3   2   3  333.77   19.18
   3   2   3  325.02   19.19
   3   2   3  319.44   19.16
   3   2   3  338.73   19.19
   3   2   3  330.46   18.07
   3   2   3  305.20   19.03
   3   2   3  305.99   19.61
   3   2   4  128.35    8.27
   3   2   4  131.93    8.29
   3   2   4  114.41    6.85
   3   2   4  124.74    7.30
   3   2   4  126.30    7.72
   3   2   4  120.06    7.67
   3   2   4  122.44    8.28
   3   2   5   16.64    2.30
   3   2   5   16.52    2.26
   3   2   5   17.81    1.42
   3   2   5   13.20    1.46
   3   2   5   13.13    1.48
   3   2   5   15.82    1.10
   3   2   5   11.69    1.80
   3   2   6   13.72    1.62
   3   2   6   13.03    1.36
   3   2   7    4.95    0.85
   3   2   7    2.54    1.27
   3   2   7    3.59    0.98
   3   2   7    4.62    0.90
   3   2   8   73.24    5.01
   3   2   8   77.54    4.85
   3   2   8   64.98    4.50
   3   2   8   88.30    4.93
   3   2   8   69.53    6.68
   3   2   8   75.46    5.26
   3   2   8   67.79    4.63
   3   2   9   46.47    3.72
   3   2   9   46.14    3.19
   3   2   9   38.06    3.00
   3   2   9   55.51    4.15
   3   2   9   47.59    3.87
   3   2   9   46.45    3.14
   3   2  10  149.72   10.46
   3   2  10  180.18    9.90
   3   2  11    0.56    0.60
   3   2  11    0.12    0.88
   3   2  12   10.33    1.09
   3   2  12   10.13    1.33
   3   3  -8    1.05    0.85
   3   3  -7   24.25    4.13
   3   3  -7   23.54    4.12
   3   3  -6  154.32   10.42
   3   3  -6  149.14   10.42
   3   3  -6  156.19   10.37
   3   3  -6  153.47   13.11
   3   3  -5  563.50   29.38
   3   3  -5  420.08   28.78
   3   3  -5  552.28   29.36
   3   3  -5  435.00   31.93
   3   3  -4   34.77    3.47
   3   3  -4   38.89    3.67
   3   3  -4   33.45    5.23
   3   3  -4   29.50    2.99
   3   3  -3   28.06    2.95
   3   3  -3   29.90    3.11
   3   3  -3   32.12    3.15
   3   3  -3   30.91    3.18
   3   3  -3   25.09    2.70
   3   3  -3   27.73    3.06
   3   3  -3   21.30    4.24
   3   3  -2   25.92    2.56
   3   3  -2   28.03    3.10
   3   3  -2   24.73    2.61
   3   3  -2   26.12    3.02
   3   3  -2   29.78    2.83
   3   3  -2   25.98    4.08
   3   3  -2   25.45    3.05
   3   3  -2   27.12    4.19
   3   3  -1    2.35    0.90
   3   3  -1    2.57    1.10
   3   3  -1    2.49    0.75
   3   3  -1    2.59    1.08
   3   3  -1    2.69    0.91
   3   3  -1    3.51    1.90
   3   3  -1    2.75    1.11
   3   3  -1    3.52    1.56
   3   3   0    0.17    0.64
   3   3   0    1.00    0.91
   3   3   0    0.20    0.73
   3   3   0    0.47    0.73
   3   3   0   -0.29    1.13
   3   3   0    1.17    1.06
   3   3   0   -0.87    1.27
   3   3   0   -0.25    1.02
   3   3   1   11.90    1.83
   3   3   1    9.68    1.72
   3   3   1   12.06    1.69
   3   3   1    9.70    2.00
   3   3   1   12.23    1.11
   3   3   1   10.11    1.70
   3   3   1    9.79    1.83
   3   3   1   11.64    1.83
   3   3   2    1.80    0.96
   3   3   2    2.30    0.49
   3   3   2    3.09    0.95
   3   3   2    1.48    0.86
   3   3   2    2.39    0.91
   3   3   2    1.10    0.77
   3   3   3  374.33   21.65
   3   3   3  365.23   21.33
   3   3   3  354.96   20.24
   3   3   3  374.17   20.19
   3   3   3  339.83   20.26
   3   3   3  382.51   21.40
   3   3   3  370.07   20.13
   3   3   3  384.23   21.36
   3   3   4  118.60    6.67
   3   3   4  109.09    6.79
   3   3   4  118.69    6.73
   3   3   4  125.04    8.08
   3   3   4  122.62    7.73
   3   3   4  114.21    6.67
   3   3   4  122.00    7.71
   3   3   5  119.65    7.19
   3   3   5  125.94    7.28
   3   3   5  112.76    7.95
   3   3   5  136.09    7.78
   3   3   5  131.50    7.12
   3   3   5  148.49    8.63
   3   3   5  115.60    7.97
   3   3   6  217.71   12.63
   3   3   6  232.60   13.01
   3   3   6  230.53   12.93
   3   3   6  179.72   12.91
   3   3   6  231.67   12.94
   3   3   6  226.15   13.35
   3   3   7    0.14    0.48
   3   3   7    0.38    0.42
   3   3   7   -0.55    1.10
   3   3   7    0.09    0.60
   3   3   8   31.30    2.47
   3   3   8   29.24    2.22
   3   3   8   24.50    1.83
   3   3   8   25.83    2.02
   3   3   8   26.63    3.64
   3   3   8   20.54    1.84
   3   3   8   23.28    2.36
   3   3   9  178.71   11.36
   3   3   9  183.98   11.24
   3   3   9  181.18   11.02
   3   3   9  178.47   13.41
   3   3   9  200.88   10.85
   3   3   9  183.21   10.72
   3   3   9  180.11   10.91
   3   3  10   86.56    5.52
   3   3  10   94.40    6.28
   3   3  10   98.73    5.59
   3   3  10   80.27    5.66
   3   3  11    0.87    0.88
   3   3  11    0.67    0.41
   3   3  11    0.23    0.54
   3   3  12    1.03    0.70
   3   3  12    1.44    0.53
   3   3  13    1.28    0.28
   3   4  -8    7.23    1.02
   3   4  -7    0.12    0.86
   3   4  -7    1.14    1.42
   3   4  -6   73.51    5.61
   3   4  -6   75.25    8.00
   3   4  -6   82.26    8.19
   3   4  -5    4.02    1.27
   3   4  -5    6.39    2.71
   3   4  -5    1.78    2.05
   3   4  -4   11.98    2.09
   3   4  -4   17.71    2.42
   3   4  -4   12.67    3.56
   3   4  -4   11.06    1.96
   3   4  -4   17.80    3.96
   3   4  -4   14.69    1.96
   3   4  -3  115.66    8.10
   3   4  -3  116.90   10.70
   3   4  -3   93.22    7.47
   3   4  -3  115.87    7.77
   3   4  -3  126.40   10.86
   3   4  -3  111.01    7.70
   3   4  -2    1.25    0.77
   3   4  -2    0.62    0.74
   3   4  -2    0.42    0.72
   3   4  -2    0.19    0.55
   3   4  -2    1.39    1.17
   3   4  -2    1.05    0.95
   3   4  -2    1.00    2.14
   3   4  -2    0.83    0.87
   3   4  -2    0.50    1.93
   3   4  -2    0.15    0.57
   3   4  -1    0.99    0.51
   3   4  -1    1.26    0.73
   3   4  -1    1.47    0.86
   3   4  -1    0.64    0.80
   3   4  -1    1.30    1.06
   3   4  -1    1.40    1.67
   3   4  -1    0.79    0.80
   3   4  -1    0.86    1.79
   3   4  -1    2.12    0.99
   3   4  -1    2.16    1.68
   3   4  -1    1.30    0.68
   3   4   0    7.75    1.33
   3   4   0    6.80    1.08
   3   4   0    6.17    1.26
   3   4   0    8.83    1.66
   3   4   0    7.22    1.46
   3   4   0    6.63    1.27
   3   4   0    9.13    2.06
   3   4   0    7.37    1.38
   3   4   0    8.42    1.63
   3   4   0    7.07    2.29
   3   4   0    6.29    1.34
   3   4   1    4.06    0.93
   3   4   1    2.93    0.65
   3   4   1    2.68    0.80
   3   4   1    2.89    1.01
   3   4   1    2.03    0.73
   3   4   1    2.65    1.24
   3   4   1    1.30    0.70
   3   4   1    3.86    1.14
   3   4   1    1.62    1.43
   3   4   1    3.71    0.73
   3   4   1    2.19    1.03
   3   4   2  421.92   22.22
   3   4   2  360.38   20.93
   3   4   2  383.72   20.87
   3   4   2  346.02   20.94
   3   4   2  357.59   21.88
   3   4   2  394.93   22.14
   3   4   2  399.60   22.34
   3   4   2  395.22   21.44
   3   4   2  371.16   22.52
   3   4   2  320.92   20.75
   3   4   2  389.68   21.22
   3   4   2  338.88   21.80
   3   4   2  447.35   22.48
   3   4   2  389.23   20.78
   3   4   3    4.43    0.75
   3   4   3    2.66    0.96
   3   4   3    3.56    0.73
   3   4   3    3.87    1.08
   3   4   3    3.42    0.52
   3   4   3    3.50    1.06
   3   4   3    2.68    0.60
   3   4   3    3.51    1.03
   3   4   3    4.05    1.10
   3   4   4  102.15    5.85
   3   4   4   94.36    6.11
   3   4   4  101.02    5.94
   3   4   4   95.69    6.30
   3   4   4  103.58    5.88
   3   4   4  104.25    7.06
   3   4   4  106.09    7.12
   3   4   4  101.28    7.03
   3   4   4  102.24    7.23
   3   4   4  105.74    7.10
   3   4   5   62.63    3.68
   3   4   5   66.25    4.25
   3   4   5   54.46    4.50
   3   4   5   54.53    3.54
   3   4   5   64.88    4.64
   3   4   5   55.67    4.52
   3   4   5   64.22    4.90
   3   4   6   10.65    1.67
   3   4   6   11.52    1.56
   3   4   6   11.19    1.50
   3   4   6    9.62    1.26
   3   4   6   10.36    1.36
   3   4   6    9.39    1.45
   3   4   7   19.45    1.62
   3   4   7   17.42    1.43
   3   4   7   17.18    2.59
   3   4   7   16.63    2.05
   3   4   7   15.90    1.42
   3   4   8    6.30    1.00
   3   4   8    6.70    0.95
   3   4   8    6.35    0.84
   3   4   8    7.47    1.94
   3   4   8    7.10    0.98
   3   4   8    6.13    0.82
   3   4   9  213.84   12.51
   3   4   9  193.61   14.78
   3   4   9  239.34   12.68
   3   4   9  216.57   12.76
   3   4   9  221.42   13.21
   3   4   9  208.56   12.67
   3   4  10   98.40    5.95
   3   4  10   90.44    6.53
   3   4  10   91.15    6.08
   3   4  10  105.67    6.05
   3   4  11   17.38    1.53
   3   4  11   20.24    1.57
   3   4  11   17.99    1.66
   3   4  11   15.87    1.97
   3   4  12    0.11    0.43
   3   4  12   -0.38    0.74
   3   4  13   15.61    1.10
   3   5  -7    2.06    0.70
   3   5  -6   10.77    2.74
   3   5  -6   16.23    1.91
   3   5  -6   14.48    2.63
   3   5  -5   30.55    4.76
   3   5  -5   29.17    2.99
   3   5  -5   32.25    4.53
   3   5  -5   22.56    4.26
   3   5  -4    1.41    0.85
   3   5  -4    2.17    1.32
   3   5  -4   -0.58    2.01
   3   5  -4    1.23    0.85
   3   5  -4    3.28    1.88
   3   5  -3   47.62    3.95
   3   5  -3   36.22    5.81
   3   5  -3   41.85    3.84
   3   5  -3   34.45    3.91
   3   5  -3   51.13    5.93
   3   5  -3   41.17    6.06
   3   5  -3   31.15    3.64
   3   5  -2    2.22    1.50
   3   5  -2    0.56    1.93
   3   5  -2   -0.21    0.77
   3   5  -2    0.48    0.79
   3   5  -2   -0.22    0.55
   3   5  -2   -0.21    0.67
   3   5  -2    0.89    1.67
   3   5  -2    1.68    2.47
   3   5  -1   62.95    4.44
   3   5  -1   50.33    4.57
   3   5  -1   55.90    4.75
   3   5  -1   52.21    4.28
   3   5  -1   50.68    4.40
   3   5  -1   43.67    4.37
   3   5  -1   47.54    4.56
   3   5  -1   56.96    6.68
   3   5  -1   52.56    4.81
   3   5  -1   58.84    6.18
   3   5   0   52.23    3.77
   3   5   0   48.47    4.04
   3   5   0   31.46    3.78
   3   5   0   48.47    3.74
   3   5   0   49.95    4.16
   3   5   0   48.67    4.22
   3   5   0   26.16    3.56
   3   5   0   46.19    5.70
   3   5   0   54.18    5.13
   3   5   0   53.16    4.32
   3   5   0   44.42    5.19
   3   5   1    3.34    1.10
   3   5   1    1.51    0.79
   3   5   1    0.86    0.87
   3   5   1    1.67    0.84
   3   5   1    1.85    0.91
   3   5   1    1.93    1.02
   3   5   1    1.63    1.17
   3   5   1    1.04    0.73
   3   5   1    1.61    1.49
   3   5   2    4.13    1.37
   3   5   2    5.92    1.13
   3   5   2    4.74    1.02
   3   5   2    6.48    1.00
   3   5   2    5.62    1.09
   3   5   2    5.36    1.41
   3   5   2    5.54    1.43
   3   5   2    7.09    1.12
   3   5   2    6.21    1.41
   3   5   2    4.86    1.39
   3   5   3    7.65    0.99
   3   5   3    7.53    1.21
   3   5   3    6.46    0.74
   3   5   3    5.71    1.40
   3   5   3    5.70    0.91
   3   5   3    7.99    1.57
   3   5   3    8.70    1.68
   3   5   3    5.82    1.03
   3   5   4   78.66    4.65
   3   5   4   78.59    5.00
   3   5   4   79.02    4.79
   3   5   4   76.47    5.29
   3   5   4   79.25    4.69
   3   5   4   87.96    6.08
   3   5   4   75.83    6.00
   3   5   4   80.10    5.96
   3   5   4   65.53    5.79
   3   5   5  269.83   15.49
   3   5   5  269.97   15.22
   3   5   5  297.58   16.75
   3   5   5  304.69   16.04
   3   5   5  315.60   17.07
   3   5   5  294.08   16.47
   3   5   5  283.69   16.67
   3   5   5  250.29   15.05
   3   5   6   85.88    5.27
   3   5   6   89.37    6.34
   3   5   6   87.48    5.58
   3   5   6   85.57    5.89
   3   5   6   82.09    5.88
   3   5   6   79.30    6.35
   3   5   6   86.69    6.30
   3   5   7   34.14    3.19
   3   5   7   32.70    2.24
   3   5   7   31.49    3.12
   3   5   7   31.65    2.65
   3   5   7   26.26    2.81
   3   5   7   36.44    2.41
   3   5   7   26.46    3.05
   3   5   7   28.02    2.24
   3   5   7   30.72    2.34
   3   5   8    8.08    1.34
   3   5   8    7.46    1.04
   3   5   8    7.21    0.95
   3   5   8    5.39    1.53
   3   5   8    9.55    1.00
   3   5   8    6.66    0.99
   3   5   9   84.46    5.84
   3   5   9   78.56    5.41
   3   5   9   66.42    6.81
   3   5   9   90.31    5.36
   3   5   9   82.89    5.45
   3   5   9  100.75    5.55
   3   5  10   34.65    2.42
   3   5  10   29.97    2.12
   3   5  10   31.75    2.41
   3   5  11    0.35    0.45
   3   5  12   17.33    1.34
   3   5  13    7.45    0.67
   3   5  13    9.33    0.70
   3   6  -6   64.90    4.17
   3   6  -6   61.82    4.11
   3   6  -5   65.02    4.42
   3   6  -5   52.39    6.02
   3   6  -5   58.65    4.37
   3   6  -4   15.02    2.04
   3   6  -4   15.03    3.45
   3   6  -4   13.04    1.04
   3   6  -4   15.01    2.09
   3   6  -3   17.88    2.57
   3   6  -3   16.95    3.85
   3   6  -3   21.95    2.60
   3   6  -2   11.46    1.92
   3   6  -2    7.37    1.59
   3   6  -2   10.26    1.82
   3   6  -2    9.85    3.04
   3   6  -2    5.50    1.55
   3   6  -2    7.59    1.57
   3   6  -1   37.35    2.47
   3   6  -1   29.90    3.62
   3   6  -1   36.78    3.76
   3   6  -1   41.23    4.88
   3   6  -1   53.27    3.86
   3   6  -1   30.23    3.45
   3   6  -1   42.18    3.66
   3   6  -1   32.14    3.61
   3   6  -1   38.10    3.88
   3   6  -1   37.38    5.60
   3   6  -1   47.49    3.29
   3   6  -1   34.33    2.49
   3   6  -1   50.17    4.07
   3   6   0    0.64    0.74
   3   6   0   -0.24    0.70
   3   6   0   -0.24    0.71
   3   6   0    0.67    1.15
   3   6   0    1.43    1.10
   3   6   0   -0.17    0.56
   3   6   0    1.24    0.94
   3   6   0    0.72    0.82
   3   6   0   -0.31    0.70
   3   6   0   -0.10    0.41
   3   6   0    0.91    0.91
   3   6   0    0.39    0.36
   3   6   1   67.52    4.19
   3   6   1   56.78    5.10
   3   6   1   47.28    4.50
   3   6   1   56.19    5.09
   3   6   1   71.27    5.90
   3   6   1   58.38    4.41
   3   6   1   78.79    4.41
   3   6   1   59.86    4.50
   3   6   1   46.89    4.21
   3   6   1   53.83    3.65
   3   6   1   62.77    5.25
   3   6   2   93.35    6.83
   3   6   2   81.20    4.99
   3   6   2   95.96    7.05
   3   6   2   87.22    5.71
   3   6   2   99.30    5.53
   3   6   2   76.13    5.67
   3   6   2   81.76    6.55
   3   6   2   75.37    6.41
   3   6   2   89.52    5.39
   3   6   2   97.01    6.85
   3   6   2   72.80    4.93
   3   6   2   75.38    5.70
   3   6   2   75.22    6.38
   3   6   3   54.14    3.60
   3   6   3   53.46    5.07
   3   6   3   47.15    4.74
   3   6   3   58.92    3.98
   3   6   3   61.67    3.73
   3   6   3   65.54    4.17
   3   6   3   56.25    4.36
   3   6   3   61.43    3.61
   3   6   3   62.73    5.00
   3   6   3   58.62    5.04
   3   6   3   53.63    4.89
   3   6   3   54.99    5.05
   3   6   3   54.79    3.62
   3   6   4   17.83    1.50
   3   6   4   18.39    1.41
   3   6   4   22.76    2.75
   3   6   4   19.60    1.81
   3   6   4   20.22    1.90
   3   6   4   17.68    1.50
   3   6   4   20.20    2.52
   3   6   4   21.42    2.66
   3   6   4   17.88    1.51
   3   6   4   22.69    1.64
   3   6   4   24.44    2.96
   3   6   4   19.36    1.56
   3   6   5    1.26    0.76
   3   6   5    2.01    1.00
   3   6   5    3.20    0.76
   3   6   5    2.89    1.02
   3   6   5    3.02    0.56
   3   6   5    3.24    0.57
   3   6   5    2.46    0.97
   3   6   5    1.99    1.08
   3   6   5    3.36    0.59
   3   6   5    5.17    0.76
   3   6   5    3.60    0.61
   3   6   6    3.10    1.09
   3   6   6    2.18    1.04
   3   6   6    2.79    0.55
   3   6   6    1.93    0.99
   3   6   6    1.98    0.51
   3   6   6    3.77    1.16
   3   6   6    2.60    0.64
   3   6   6    2.63    0.60
   3   6   6    2.28    0.84
   3   6   7   -0.22    0.65
   3   6   7   -0.22    0.69
   3   6   7    0.32    0.45
   3   6   7    0.32    1.01
   3   6   7    0.34    0.34
   3   6   7    0.15    0.50
   3   6   7    0.22    0.65
   3   6   7   -0.23    0.63
   3   6   7    0.34    0.35
   3   6   8   62.39    4.29
   3   6   8   70.69    5.30
   3   6   8   64.19    4.73
   3   6   8   71.78    4.45
   3   6   8   74.12    4.54
   3   6   9    8.61    0.95
   3   6   9    7.09    1.29
   3   6  10    8.94    0.93
   3   6  10    6.16    1.21
   3   6  10    9.13    1.11
   3   6  11   18.90    2.01
   3   6  11   19.16    1.52
   3   6  12    1.06    0.65
   3   6  12    1.10    0.49
   3   6  12    1.29    0.43
   3   6  12    1.23    0.38
   3   6  13    0.38    0.16
   3   6  13    0.34    0.17
   3   7  -5    6.15    0.75
   3   7  -5    3.87    0.73
   3   7  -4   13.00    1.31
   3   7  -4   14.46    1.37
   3   7  -4   10.46    1.45
   3   7  -4   11.61    1.53
   3   7  -3    3.65    0.50
   3   7  -3    3.45    1.42
   3   7  -3    5.26    1.88
   3   7  -3    5.37    0.95
   3   7  -3    3.67    1.05
   3   7  -3    5.15    1.22
   3   7  -2  112.01    6.80
   3   7  -2  118.84    7.87
   3   7  -2  120.34    7.82
   3   7  -2  126.45    7.45
   3   7  -2  118.13    9.21
   3   7  -2  119.73    9.96
   3   7  -1   10.00    2.20
   3   7  -1    5.72    2.08
   3   7  -1    5.29    1.45
   3   7  -1   10.01    1.41
   3   7  -1    6.76    1.53
   3   7  -1    9.25    1.29
   3   7  -1    7.86    0.79
   3   7  -1    8.65    1.72
   3   7  -1    6.87    1.56
   3   7  -1    6.67    0.78
   3   7   0   23.83    2.80
   3   7   0   25.45    2.87
   3   7   0   24.77    3.46
   3   7   0   28.09    4.23
   3   7   0   27.23    2.76
   3   7   0   34.33    2.62
   3   7   0   29.10    2.59
   3   7   0   23.99    2.74
   3   7   0   28.19    3.23
   3   7   0   25.10    3.19
   3   7   0   28.31    2.43
   3   7   0   27.40    3.11
   3   7   0   27.93    3.21
   3   7   0   25.59    1.94
   3   7   0   27.51    1.97
   3   7   1   33.25    3.70
   3   7   1   29.12    3.66
   3   7   1   24.79    2.78
   3   7   1   32.46    2.63
   3   7   1   28.92    2.67
   3   7   1   25.29    2.84
   3   7   1   35.47    3.71
   3   7   1   32.83    2.60
   3   7   1   31.98    3.55
   3   7   1   31.21    2.21
   3   7   1   28.48    3.07
   3   7   1   36.67    3.72
   3   7   1   30.98    2.20
   3   7   2  174.37   11.19
   3   7   2  149.75   10.84
   3   7   2  146.72    9.70
   3   7   2  166.69    9.40
   3   7   2  162.41    9.56
   3   7   2  149.33    9.86
   3   7   2  156.11    9.34
   3   7   2  153.03   10.47
   3   7   2  169.87   10.94
   3   7   2  150.53    8.98
   3   7   2  167.58   10.93
   3   7   2  170.37   11.03
   3   7   2  141.40    8.91
   3   7   3   67.22    4.29
   3   7   3   66.92    4.32
   3   7   3   68.22    5.81
   3   7   3   65.76    4.60
   3   7   3   70.49    4.80
   3   7   3   70.43    4.29
   3   7   3   62.57    5.31
   3   7   3   68.28    5.82
   3   7   3   69.54    5.89
   3   7   3   71.88    4.30
   3   7   3   77.29    6.29
   3   7   4    7.36    1.56
   3   7   4    9.10    1.22
   3   7   4    7.69    0.86
   3   7   4    7.31    1.21
   3   7   4    7.53    1.46
   3   7   4    8.80    0.99
   3   7   4    9.96    1.79
   3   7   5   63.61    5.33
   3   7   5   58.58    3.71
   3   7   5   65.17    5.64
   3   7   5   50.84    4.40
   3   7   5   55.87    3.66
   3   7   5   63.65    5.36
   3   7   5   50.02    4.63
   3   7   5   63.51    3.81
   3   7   5   54.16    3.52
   3   7   5   59.66    4.95
   3   7   6   76.84    6.29
   3   7   6   72.43    4.66
   3   7   6   79.82    5.17
   3   7   6   71.32    5.55
   3   7   6   77.65    4.67
   3   7   6   72.50    6.20
   3   7   6   68.01    5.79
   3   7   6   77.97    4.78
   3   7   7   28.42    2.00
   3   7   7   25.44    2.38
   3   7   7   24.86    2.84
   3   7   7   31.58    2.22
   3   7   7   28.60    2.02
   3   7   7   23.31    2.82
   3   7   7   23.99    2.88
   3   7   7   22.17    2.81
   3   7   8   13.39    1.15
   3   7   8   13.09    1.21
   3   7   8   13.22    1.59
   3   7   8   12.79    2.01
   3   7   9   -0.43    0.70
   3   7   9    0.42    0.42
   3   7   9    0.37    0.45
   3   7  10    1.17    0.71
   3   7  10    2.07    0.53
   3   7  10    1.70    0.48
   3   7  10    1.92    0.64
   3   7  10    3.04    1.01
   3   7  11    6.02    0.74
   3   7  11    6.11    0.75
   3   7  11    5.10    0.64
   3   7  11    4.59    0.99
   3   7  12    2.11    0.41
   3   7  12    2.18    0.36
   3   8  -3   27.92    1.78
   3   8  -3   28.80    2.37
   3   8  -3   28.64    2.32
   3   8  -3   32.46    2.24
   3   8  -2   39.09    2.76
   3   8  -2   44.59    3.00
   3   8  -2   35.46    3.07
   3   8  -2   38.16    2.44
   3   8  -2   38.13    2.78
   3   8  -2   36.47    3.04
   3   8  -1   -0.74    0.83
   3   8  -1   -0.32    0.55
   3   8  -1    0.40    0.65
   3   8  -1   -0.41    0.77
   3   8  -1   -0.04    0.34
   3   8  -1    0.08    0.50
   3   8  -1   -0.10    0.24
   3   8  -1    0.24    0.69
   3   8   0   30.13    3.73
   3   8   0   37.59    3.74
   3   8   0   33.91    3.19
   3   8   0   39.85    2.96
   3   8   0   41.94    3.14
   3   8   0   38.19    3.41
   3   8   0   39.50    2.63
   3   8   0   39.34    2.95
   3   8   0   38.72    2.58
   3   8   0   42.08    2.59
   3   8   1    1.72    0.49
   3   8   1    0.99    0.81
   3   8   1    1.36    0.85
   3   8   1    0.14    0.99
   3   8   1    1.68    0.69
   3   8   1    1.09    0.64
   3   8   1    1.42    0.88
   3   8   1    0.99    0.58
   3   8   1    1.52    0.46
   3   8   1    1.33    0.47
   3   8   2   27.34    3.21
   3   8   2   29.79    3.46
   3   8   2   32.19    2.20
   3   8   2   27.87    2.36
   3   8   2   26.96    2.47
   3   8   2   30.31    2.94
   3   8   2   27.62    3.40
   3   8   2   35.78    3.69
   3   8   2   24.16    3.06
   3   8   2   24.69    3.08
   3   8   2   28.50    2.10
   3   8   2   29.11    2.11
   3   8   3  224.09   14.22
   3   8   3  229.55   12.29
   3   8   3  209.34   12.45
   3   8   3  212.29   12.66
   3   8   3  209.37   12.20
   3   8   3  213.27   14.00
   3   8   3  234.35   14.33
   3   8   3  185.19   13.59
   3   8   3  196.28   13.70
   3   8   3  214.61   12.16
   3   8   4    5.06    1.45
   3   8   4   10.93    2.07
   3   8   4    8.75    1.00
   3   8   4    5.96    1.47
   3   8   4    6.21    1.07
   3   8   4    6.17    1.47
   3   8   4    8.27    0.95
   3   8   4   10.67    2.04
   3   8   4    7.93    1.67
   3   8   4    6.99    1.58
   3   8   4    7.93    0.87
   3   8   5   47.96    4.84
   3   8   5   55.73    3.44
   3   8   5   54.82    3.46
   3   8   5   49.24    3.21
   3   8   5   50.73    4.22
   3   8   5   51.58    3.37
   3   8   5   49.93    4.93
   3   8   5   39.11    4.37
   3   8   5   48.40    4.64
   3   8   5   50.74    4.65
   3   8   6    3.46    0.86
   3   8   6    2.48    1.15
   3   8   6    3.10    0.48
   3   8   6    3.46    0.64
   3   8   6    3.82    1.13
   3   8   6    2.63    0.57
   3   8   7  111.13    7.58
   3   8   7  108.99    6.56
   3   8   7  105.32    6.53
   3   8   7  109.75    6.90
   3   8   7  116.09    6.56
   3   8   8    4.27    1.34
   3   8   8    3.83    0.61
   3   8   8    3.99    0.62
   3   8   8    3.99    0.87
   3   8   8    5.68    0.74
   3   8   8    4.79    0.75
   3   8   9    1.41    0.63
   3   8   9    3.12    0.63
   3   8  10    4.39    0.63
   3   8  10    4.27    0.53
   3   8  10    4.05    0.64
   3   8  10    3.15    0.89
   3   8  11  100.57    5.56
   3   8  11   87.35    5.82
   3   8  12   13.28    0.90
   3   9  -2   25.14    1.55
   3   9  -1   66.88    4.84
   3   9  -1   74.70    4.61
   3   9  -1   76.83    4.36
   3   9   0    2.83    0.44
   3   9   0    3.07    0.51
   3   9   0    2.78    0.68
   3   9   1    6.60    0.97
   3   9   1    5.77    0.72
   3   9   1    6.99    0.77
   3   9   1    6.56    0.73
   3   9   2    5.42    0.72
   3   9   2    5.76    0.75
   3   9   2    4.91    0.79
   3   9   2    4.71    0.90
   3   9   3   30.77    2.17
   3   9   3   27.82    2.09
   3   9   3   32.86    2.23
   3   9   3   28.99    2.81
   3   9   4   12.24    1.79
   3   9   4   12.18    1.10
   3   9   4   12.12    1.07
   3   9   4   10.83    1.13
   3   9   4   14.06    1.24
   3   9   5    4.72    0.64
   3   9   5    3.83    0.77
   3   9   5    4.06    0.59
   3   9   5    4.35    1.24
   3   9   6    9.62    1.04
   3   9   6   11.04    1.05
   3   9   6    9.98    1.62
   3   9   7   27.60    2.07
   3   9   7   25.05    2.69
   3   9   7   30.43    2.08
   3   9   7   30.63    2.09
   3   9   8    3.43    0.58
   3   9   8    2.60    0.49
   3   9   8    3.95    1.10
   3   9   8    3.59    0.56
   3   9   9    0.04    0.33
   3   9   9   -0.21    0.34
   3   9  10    0.63    0.29
   3  10   0    0.69    0.21
   3  10   1   31.38    2.11
   3  10   1   34.29    2.15
   3  10   2   18.78    1.36
   3  10   2   18.24    1.31
   3  10   2   17.60    1.75
   3  10   3   26.34    1.85
   3  10   3   27.18    1.79
   3  10   4    8.62    1.29
   3  10   4    9.86    0.87
   3  10   4    9.73    0.96
   3  10   5    0.42    0.34
   3  10   5    0.21    0.69
   3  10   6   29.60    2.15
   3  10   6   30.74    2.75
   3  10   6   38.78    2.31
   3  10   6   38.40    2.34
   3  10   7    4.88    0.60
   3  10   7    5.49    1.08
   3  10   7    5.48    0.66
   3  10   7    6.80    0.68
   3  10   8   18.77    1.34
   3  11   3    3.58    0.34
   3  11   4    1.90    0.31
   3  11   4    2.06    0.30
   3  11   5    2.62    0.37
   3  11   5    2.87    0.36
   3  11   6    6.01    0.54
   3  11   6    7.76    0.61
   3  11   7    4.06    0.38
   4  -9  -5   56.10    3.71
   4  -9  -5   53.88    3.65
   4  -9  -4    8.71    1.24
   4  -9  -4    8.24    1.11
   4  -9  -4    7.65    1.10
   4  -9  -3    0.55    0.60
   4  -9  -3    0.72    0.58
   4  -9  -3   -0.20    0.96
   4  -9  -3    0.10    0.65
   4  -9  -2  109.37    6.33
   4  -9  -2  104.29    6.28
   4  -9  -2  105.56    6.36
   4  -9  -1   23.04    1.86
   4  -9  -1   14.01    1.73
   4  -9  -1   19.55    2.31
   4  -9  -1   29.58    2.22
   4  -9  -1   22.00    1.79
   4  -9   0   26.65    2.65
   4  -9   1    5.82    1.30
   4  -8  -6    5.47    0.95
   4  -8  -6    5.59    0.97
   4  -8  -5   11.76    2.74
   4  -8  -5   12.35    2.60
   4  -8  -5   10.68    1.29
   4  -8  -5    9.06    1.39
   4  -8  -5    7.29    0.88
   4  -8  -5    9.45    1.26
   4  -8  -4    2.75    0.72
   4  -8  -4    4.91    1.97
   4  -8  -4    3.90    0.70
   4  -8  -4    3.00    0.64
   4  -8  -3    0.42    1.23
   4  -8  -3    0.53    0.54
   4  -8  -3    0.26    0.47
   4  -8  -3   -0.14    0.47
   4  -8  -2   20.60    1.90
   4  -8  -2   13.58    1.94
   4  -8  -2   17.31    3.21
   4  -8  -2   17.62    1.69
   4  -8  -2   18.52    3.27
   4  -8  -2   20.43    1.68
   4  -8  -2   18.68    1.68
   4  -8  -1    1.95    0.61
   4  -8  -1    0.82    0.69
   4  -8  -1    2.06    0.81
   4  -8  -1    1.94    0.73
   4  -8  -1    1.29    1.01
   4  -8  -1   -0.35    1.10
   4  -8  -1    1.40    0.62
   4  -8  -1    2.60    1.49
   4  -8  -1    0.50    2.09
   4  -8  -1    1.50    0.58
   4  -8   0   -0.62    0.61
   4  -8   0    0.25    0.56
   4  -8   0   -0.98    1.23
   4  -8   0   -1.47    2.39
   4  -8   0   -0.20    1.54
   4  -8   0    0.29    0.51
   4  -8   0    0.30    1.01
   4  -8   1    9.65    1.30
   4  -8   1    9.20    1.65
   4  -8   1    8.93    2.83
   4  -8   1    7.96    2.06
   4  -8   2    8.78    1.97
   4  -8   3    0.10    0.87
   4  -8   3    2.04    1.32
   4  -8   4    1.63    0.65
   4  -7  -7   99.97    6.20
   4  -7  -6    9.65    2.72
   4  -7  -6   11.14    2.44
   4  -7  -5    5.86    0.85
   4  -7  -5    5.71    0.89
   4  -7  -4   10.95    3.84
   4  -7  -4    7.28    2.02
   4  -7  -4    8.86    1.12
   4  -7  -4    8.12    1.03
   4  -7  -4    8.91    1.06
   4  -7  -3    2.98    0.73
   4  -7  -3    3.15    0.64
   4  -7  -3    1.58    2.60
   4  -7  -3    2.22    1.34
   4  -7  -3    2.18    0.75
   4  -7  -3    2.38    0.71
   4  -7  -3    2.60    2.55
   4  -7  -3    0.87    2.03
   4  -7  -2    3.54    0.77
   4  -7  -2    4.17    3.58
   4  -7  -2    1.68    3.03
   4  -7  -2    3.57    0.72
   4  -7  -2    4.22    0.89
   4  -7  -2    4.22    0.83
   4  -7  -1  130.80    7.67
   4  -7  -1  126.12    7.60
   4  -7  -1  133.65    7.61
   4  -7  -1  134.31    7.54
   4  -7  -1  106.47    8.75
   4  -7  -1  102.32    8.23
   4  -7  -1  134.90   10.34
   4  -7  -1  101.67   11.96
   4  -7  -1   91.71   11.58
   4  -7   0   50.75    3.39
   4  -7   0   41.29    6.44
   4  -7   0   46.89    6.75
   4  -7   0   48.06    3.26
   4  -7   0   41.50    4.93
   4  -7   0   40.69    4.10
   4  -7   0   43.46    5.15
   4  -7   0   48.20    3.40
   4  -7   0   49.23    5.39
   4  -7   1   44.00    5.12
   4  -7   1   42.20    3.18
   4  -7   1   46.32    3.22
   4  -7   1   52.15    3.43
   4  -7   1   42.64    3.23
   4  -7   1   41.60    4.79
   4  -7   1   42.66    4.11
   4  -7   1   48.44    3.30
   4  -7   1   50.73    4.85
   4  -7   1   44.64    4.89
   4  -7   1   41.46    4.55
   4  -7   2   -0.25    2.77
   4  -7   2    2.31    1.16
   4  -7   2    0.99    1.78
   4  -7   2    0.23    0.52
   4  -7   2    0.58    1.32
   4  -7   3   28.86    3.19
   4  -7   3   30.86    4.44
   4  -7   3   31.04    3.68
   4  -7   3   31.59    3.76
   4  -7   3   30.01    2.30
   4  -7   4   14.40    1.39
   4  -7   4   13.14    2.02
   4  -7   5   13.79    1.27
   4  -7   5   15.42    1.79
   4  -7   6    0.29    0.51
   4  -6  -7   47.84    5.68
   4  -6  -6    9.82    2.24
   4  -6  -5    8.04    3.30
   4  -6  -5    7.24    3.09
   4  -6  -5   13.61    1.35
   4  -6  -5   12.53    3.87
   4  -6  -5   13.13    2.55
   4  -6  -5   13.01    1.26
   4  -6  -4    4.16    2.73
   4  -6  -4    2.49    2.44
   4  -6  -4    2.48    0.57
   4  -6  -4    1.79    0.67
   4  -6  -4    1.81    2.67
   4  -6  -4    2.40    2.50
   4  -6  -4    3.87    1.64
   4  -6  -4    0.73    1.14
   4  -6  -3   73.74    4.54
   4  -6  -3   77.29    4.72
   4  -6  -3   70.32    6.66
   4  -6  -3   64.58    5.77
   4  -6  -3   76.73    9.67
   4  -6  -3   68.97    6.71
   4  -6  -2   42.94    7.63
   4  -6  -2   43.11    7.76
   4  -6  -2   55.70    3.65
   4  -6  -2   56.59    3.57
   4  -6  -2   60.68    3.83
   4  -6  -2   52.57    5.02
   4  -6  -2   53.96    5.61
   4  -6  -1   63.44    4.00
   4  -6  -1   51.94    8.16
   4  -6  -1   43.72    7.50
   4  -6  -1   58.60    3.89
   4  -6  -1   58.51    3.81
   4  -6  -1   58.76    3.98
   4  -6  -1   50.25    8.37
   4  -6  -1   62.61    8.52
   4  -6  -1   62.82    6.10
   4  -6  -1   60.55    5.50
   4  -6  -1   58.27    5.89
   4  -6   0   -0.79    1.30
   4  -6   0   -1.89    2.63
   4  -6   0    0.69    0.60
   4  -6   0    0.72    0.91
   4  -6   0    0.38    0.47
   4  -6   0    0.70    0.54
   4  -6   0    0.86    2.00
   4  -6   0    0.34    0.99
   4  -6   0    1.57    2.16
   4  -6   0   -0.79    2.01
   4  -6   1   30.18    3.59
   4  -6   1   29.06    4.42
   4  -6   1   31.01    5.51
   4  -6   1   32.68    5.69
   4  -6   1   38.79    2.70
   4  -6   1   36.98    2.65
   4  -6   1   28.04    5.57
   4  -6   1   38.10    2.72
   4  -6   1   32.32    4.15
   4  -6   1   35.45    4.25
   4  -6   2   42.20    4.60
   4  -6   2   34.22    3.91
   4  -6   2   40.83    4.68
   4  -6   2   43.35    3.00
   4  -6   2   42.07    2.93
   4  -6   2   42.88    6.35
   4  -6   2   44.53    5.30
   4  -6   2   40.13    4.48
   4  -6   2   41.81    2.96
   4  -6   2   42.18    4.51
   4  -6   2   36.14    4.26
   4  -6   2   33.16    5.43
   4  -6   2   29.47    5.14
   4  -6   3  106.88    9.90
   4  -6   3  102.93    9.75
   4  -6   3  111.58    6.95
   4  -6   3  122.10    9.18
   4  -6   3  121.46    8.50
   4  -6   3  123.42    9.55
   4  -6   3  123.79    9.12
   4  -6   3  116.73    7.04
   4  -6   4    6.13    1.79
   4  -6   4    4.53    3.50
   4  -6   4    9.27    1.16
   4  -6   4    9.79    2.61
   4  -6   4    6.06    0.93
   4  -6   5    7.38    1.73
   4  -6   5    4.91    1.58
   4  -6   5    3.87    0.69
   4  -6   6   24.07    1.94
   4  -6   6   24.61    2.50
   4  -6   7   13.68    1.50
   4  -5  -6   24.91    3.31
   4  -5  -6   18.81    4.44
   4  -5  -6   12.31    3.90
   4  -5  -6   18.06    4.80
   4  -5  -5   72.12    9.07
   4  -5  -5   91.76    7.17
   4  -5  -5   58.74    8.36
   4  -5  -5   64.68    8.74
   4  -5  -5   65.53    9.05
   4  -5  -4  863.12   42.53
   4  -5  -4  641.74   45.93
   4  -5  -4  734.66   45.91
   4  -5  -4  732.53   42.01
   4  -5  -4  598.02   44.93
   4  -5  -4  576.67   44.74
   4  -5  -3  173.33   10.04
   4  -5  -3  209.40   12.88
   4  -5  -3  157.42   15.71
   4  -5  -3  187.85   12.60
   4  -5  -3  170.43   11.57
   4  -5  -3  192.48   16.07
   4  -5  -3  142.64   14.89
   4  -5  -3  143.73   14.91
   4  -5  -2  157.27    9.31
   4  -5  -2  161.60    9.29
   4  -5  -2  202.71   12.17
   4  -5  -2  145.45   14.87
   4  -5  -2  153.82   11.38
   4  -5  -2  149.79   10.81
   4  -5  -2  176.86   15.20
   4  -5  -2  152.16   14.80
   4  -5  -2  147.73   14.61
   4  -5  -1    2.98    0.64
   4  -5  -1    3.94    0.72
   4  -5  -1    3.13    0.57
   4  -5  -1    1.69    2.78
   4  -5  -1    1.46    2.28
   4  -5  -1    1.98    1.19
   4  -5  -1    2.45    1.43
   4  -5  -1    2.47    1.40
   4  -5   0   93.93    5.72
   4  -5   0   77.97   10.27
   4  -5   0   94.54   11.13
   4  -5   0   99.08    5.86
   4  -5   0  106.70    5.88
   4  -5   0  104.19    7.96
   4  -5   0   94.03    7.43
   4  -5   1    6.42    1.78
   4  -5   1    5.42    2.88
   4  -5   1    8.89    0.99
   4  -5   1    7.38    3.10
   4  -5   1    8.18    3.31
   4  -5   1    9.78    1.06
   4  -5   1    8.74    1.02
   4  -5   1    9.24    1.09
   4  -5   1    7.18    3.24
   4  -5   1    8.95    2.18
   4  -5   1   10.49    2.00
   4  -5   1    8.56    1.90
   4  -5   2   40.53    4.38
   4  -5   2   37.13    3.96
   4  -5   2   33.92    4.99
   4  -5   2   34.08    4.40
   4  -5   2   39.80    2.82
   4  -5   2   37.02    2.72
   4  -5   2   43.09    2.80
   4  -5   2   41.65    2.81
   4  -5   2   33.94    5.90
   4  -5   2   29.22    5.51
   4  -5   2   38.05    6.08
   4  -5   2   34.16    3.96
   4  -5   3  124.57    7.75
   4  -5   3  115.07   11.67
   4  -5   3  128.94   10.31
   4  -5   3  120.76    9.79
   4  -5   3  137.66    7.86
   4  -5   3  127.50    7.76
   4  -5   3  109.49   11.06
   4  -5   3  121.81   11.48
   4  -5   3  145.32    7.87
   4  -5   3  139.71    7.80
   4  -5   3  109.47    9.23
   4  -5   3  125.32    9.25
   4  -5   4  306.77   18.37
   4  -5   4  290.32   17.78
   4  -5   4  262.27   15.31
   4  -5   4  288.34   17.16
   4  -5   4  305.87   15.43
   4  -5   4  259.72   19.45
   4  -5   4  265.56   18.94
   4  -5   4  240.77   18.59
   4  -5   4  237.80   15.18
   4  -5   4  309.11   17.95
   4  -5   5  275.79   18.67
   4  -5   5  277.03   16.70
   4  -5   5  308.55   16.62
   4  -5   6  422.75   23.29
   4  -5   6  411.66   25.58
   4  -5   6  420.85   24.49
   4  -5   6  408.19   23.29
   4  -5   7   51.71    3.48
   4  -5   7   49.55    4.10
   4  -5   8   34.78    2.75
   4  -4  -7    2.52    2.07
   4  -4  -7    1.26    1.61
   4  -4  -6   33.29    5.75
   4  -4  -6   28.75    5.42
   4  -4  -6   29.79    5.64
   4  -4  -6   43.10    4.44
   4  -4  -5   17.13    4.11
   4  -4  -5   17.81    4.17
   4  -4  -5   13.22    3.78
   4  -4  -5   12.88    3.77
   4  -4  -4  183.95   11.80
   4  -4  -4  136.26   13.68
   4  -4  -4  129.50   13.46
   4  -4  -4  130.17   13.30
   4  -4  -4  201.24   11.25
   4  -4  -4  140.04   14.09
   4  -4  -3  217.25   13.80
   4  -4  -3  155.11   15.73
   4  -4  -3  162.52   15.81
   4  -4  -3  199.00   16.31
   4  -4  -3  206.91   12.58
   4  -4  -3  239.59   13.40
   4  -4  -3  159.48   16.15
   4  -4  -2   46.47    4.61
   4  -4  -2   43.90    6.42
   4  -4  -2   43.59    3.83
   4  -4  -2   55.60    4.50
   4  -4  -2   38.62    6.72
   4  -4  -2   31.69    5.88
   4  -4  -2   42.80    6.67
   4  -4  -1   31.15    2.17
   4  -4  -1   27.18    5.57
   4  -4  -1   26.72    5.43
   4  -4  -1   26.62    5.36
   4  -4  -1   31.58    3.07
   4  -4  -1   30.12    5.45
   4  -4  -1   34.37    3.44
   4  -4  -1   30.23    6.02
   4  -4   0   83.43    4.99
   4  -4   0   89.81    9.83
   4  -4   0   87.90    9.92
   4  -4   0   91.03    6.86
   4  -4   0   85.53    6.54
   4  -4   0  107.58   10.03
   4  -4   0   89.12   10.14
   4  -4   1  104.76    6.17
   4  -4   1   91.84    8.84
   4  -4   1  105.51   11.19
   4  -4   1  104.12    7.75
   4  -4   1  103.35    7.65
   4  -4   1   99.90    6.19
   4  -4   1  104.97    6.23
   4  -4   1  131.73    8.61
   4  -4   2   10.59    1.94
   4  -4   2   11.96    3.17
   4  -4   2    9.64    1.04
   4  -4   2   11.06    3.68
   4  -4   2   12.48    3.58
   4  -4   2    9.52    1.06
   4  -4   2   11.07    2.08
   4  -4   2    8.58    1.85
   4  -4   2    9.06    1.79
   4  -4   3    2.71    1.16
   4  -4   3    5.17    1.70
   4  -4   3    1.71    3.38
   4  -4   3    4.07    0.74
   4  -4   3    3.61    2.13
   4  -4   3    2.88    0.66
   4  -4   3    4.20    0.67
   4  -4   3    2.25    0.64
   4  -4   3    3.26    0.67
   4  -4   3    4.51    0.69
   4  -4   3    7.77    3.23
   4  -4   3    2.34    1.93
   4  -4   3    4.14    2.39
   4  -4   3    3.71    1.21
   4  -4   4   44.88    3.04
   4  -4   4   36.18    5.76
   4  -4   4   44.29    5.71
   4  -4   4   39.69    4.82
   4  -4   4   50.80    3.17
   4  -4   4   44.83    3.06
   4  -4   4   52.43    3.20
   4  -4   4   41.93    4.20
   4  -4   4   45.83    6.08
   4  -4   4   45.82    5.99
   4  -4   4   41.87    4.39
   4  -4   5  109.04    9.87
   4  -4   5  109.55    9.85
   4  -4   5  121.83    6.96
   4  -4   5  132.15   10.91
   4  -4   5  107.24    6.75
   4  -4   5  114.36    7.26
   4  -4   6  122.74    7.59
   4  -4   6  122.35   10.18
   4  -4   6  124.27   10.18
   4  -4   6  135.84    9.82
   4  -4   6  126.50    8.93
   4  -4   6  126.89    7.77
   4  -4   7   27.62    3.19
   4  -4   7   24.78    3.49
   4  -4   7   32.68    2.36
   4  -4   7   29.97    2.35
   4  -4   8   10.25    1.26
   4  -4   8   10.39    1.81
   4  -4   8   12.79    1.11
   4  -4   9   16.06    1.15
   4  -3  -6   17.29    3.96
   4  -3  -5   17.53    3.73
   4  -3  -5   14.12    3.65
   4  -3  -4  251.14   13.84
   4  -3  -4  258.98   13.13
   4  -3  -4  131.08   14.09
   4  -3  -4  135.00   16.04
   4  -3  -4  156.76   15.38
   4  -3  -3   30.69    2.85
   4  -3  -3   16.41    3.60
   4  -3  -3   12.03    3.57
   4  -3  -3   15.48    3.90
   4  -3  -3   34.20    5.40
   4  -3  -2  106.44   11.98
   4  -3  -2  105.14   11.16
   4  -3  -2  111.71   10.32
   4  -3  -2  138.07    8.30
   4  -3  -2  113.48   11.14
   4  -3  -2  105.24   10.94
   4  -3  -1   95.93    5.49
   4  -3  -1   99.73   10.95
   4  -3  -1   78.11    9.45
   4  -3  -1   99.26    6.72
   4  -3  -1   97.95    9.11
   4  -3  -1   76.30    9.09
   4  -3  -1   79.50    9.24
   4  -3   0    1.23    2.12
   4  -3   0    3.08    2.03
   4  -3   0    0.58    0.31
   4  -3   0    0.84    0.37
   4  -3   0   -0.65    1.91
   4  -3   0    0.48    1.48
   4  -3   0    0.16    0.65
   4  -3   0    0.95    0.74
   4  -3   0    2.39    1.86
   4  -3   1    1.20    2.06
   4  -3   1    4.21    2.50
   4  -3   1    1.18    0.37
   4  -3   1    1.27    0.45
   4  -3   1    1.17    0.37
   4  -3   1    1.90    2.27
   4  -3   1    1.62    0.84
   4  -3   1   -0.19    0.68
   4  -3   1    1.29    1.41
   4  -3   2  391.54   25.62
   4  -3   2  387.86   25.53
   4  -3   2  372.94   20.53
   4  -3   2  359.54   20.60
   4  -3   2  384.97   23.33
   4  -3   2  425.29   26.44
   4  -3   2  353.76   20.51
   4  -3   2  380.45   20.60
   4  -3   2  401.38   21.99
   4  -3   3  165.05    9.01
   4  -3   3  162.12   10.09
   4  -3   3  155.40   10.52
   4  -3   3  154.99   11.11
   4  -3   3  148.18    8.98
   4  -3   3  145.60   10.67
   4  -3   4   73.87    6.04
   4  -3   4   75.53    4.77
   4  -3   4   72.84    6.12
   4  -3   4   79.28    7.30
   4  -3   4   74.95    6.70
   4  -3   4   80.54    4.85
   4  -3   4   82.82    4.93
   4  -3   4   76.80    4.79
   4  -3   4   86.07    4.89
   4  -3   4   87.91    4.98
   4  -3   4   74.78    6.23
   4  -3   4   83.17    8.50
   4  -3   4   80.11    8.27
   4  -3   5    4.83    2.16
   4  -3   5    6.84    2.25
   4  -3   5    7.92    0.91
   4  -3   5   10.19    2.97
   4  -3   5    6.56    1.20
   4  -3   5    8.69    2.45
   4  -3   5    7.82    0.87
   4  -3   6    3.20    0.92
   4  -3   6    6.01    2.22
   4  -3   6    4.96    1.72
   4  -3   6    4.04    1.69
   4  -3   6    5.46    2.12
   4  -3   6    3.87    1.36
   4  -3   6    3.68    0.77
   4  -3   7    9.33    1.16
   4  -3   7    6.76    2.07
   4  -3   7   12.44    2.64
   4  -3   7    8.06    2.03
   4  -3   7    5.30    0.96
   4  -3   7    9.10    1.22
   4  -3   7   10.15    2.11
   4  -3   8   13.97    2.26
   4  -3   8   12.53    2.38
   4  -3   8   17.73    1.56
   4  -3   8   14.19    1.49
   4  -3   9   33.24    2.64
   4  -3   9   41.09    2.56
   4  -3   9   35.38    3.24
   4  -3  10   15.42    1.09
   4  -2  -6   61.72    7.84
   4  -2  -5   12.02    3.23
   4  -2  -5   17.84    4.18
   4  -2  -5   21.21    4.76
   4  -2  -4  117.91   11.50
   4  -2  -4  192.86   14.56
   4  -2  -3  122.28   10.75
   4  -2  -3  122.16   10.79
   4  -2  -3  153.13   12.74
   4  -2  -3  144.82   12.92
   4  -2  -3  119.62   10.91
   4  -2  -3  103.27    9.49
   4  -2  -2  113.04   10.32
   4  -2  -2  106.11   10.10
   4  -2  -2  123.80   11.80
   4  -2  -2  117.51   10.71
   4  -2  -2  113.36    9.29
   4  -2  -1  184.80   14.41
   4  -2  -1  168.87   14.09
   4  -2  -1  163.82   13.59
   4  -2  -1  167.56   14.22
   4  -2  -1  211.34   13.51
   4  -2   0  354.84   25.34
   4  -2   0  349.45   25.25
   4  -2   0  431.61   22.45
   4  -2   0  392.05   24.17
   4  -2   0  331.98   24.50
   4  -2   0  343.24   25.45
   4  -2   1 2735.07  139.38
   4  -2   1 2488.68  139.32
   4  -2   1 2371.73  143.77
   4  -2   1 2341.32  143.68
   4  -2   1 2576.05  140.49
   4  -2   1 2172.19  142.62
   4  -2   1 2335.88  144.01
   4  -2   2   13.44    1.12
   4  -2   2   13.99    1.16
   4  -2   2   12.58    3.18
   4  -2   2    6.84    2.69
   4  -2   2   14.45    1.12
   4  -2   2   15.45    1.89
   4  -2   2    9.09    2.27
   4  -2   2   10.30    3.11
   4  -2   3  505.18   30.63
   4  -2   3  505.85   30.56
   4  -2   3  449.00   26.21
   4  -2   3  469.52   26.17
   4  -2   3  445.69   26.17
   4  -2   3  473.78   26.22
   4  -2   3  525.18   30.88
   4  -2   3  540.70   27.24
   4  -2   3  518.70   27.67
   4  -2   3  603.55   28.18
   4  -2   4   49.87    6.01
   4  -2   4   38.20    3.81
   4  -2   4   47.70    4.40
   4  -2   4   43.82    2.97
   4  -2   4   44.16    2.81
   4  -2   4   44.15    2.87
   4  -2   5  151.57   10.39
   4  -2   5  140.14    8.48
   4  -2   5  146.74   10.64
   4  -2   5  161.85    9.85
   4  -2   5  113.31   11.24
   4  -2   5  143.49    8.65
   4  -2   5  143.56    8.36
   4  -2   5  154.17    8.48
   4  -2   6    8.92    1.96
   4  -2   6    5.94    2.21
   4  -2   6    6.69    1.19
   4  -2   6    4.08    1.80
   4  -2   6   10.57    2.64
   4  -2   7    4.60    1.00
   4  -2   7    3.91    1.86
   4  -2   7    7.16    1.90
   4  -2   7    8.55    1.87
   4  -2   7    7.89    2.30
   4  -2   7    6.64    2.08
   4  -2   7    5.45    0.93
   4  -2   8   14.83    2.37
   4  -2   8    9.95    1.19
   4  -2   8   18.45    3.13
   4  -2   8   17.37    3.16
   4  -2   8   12.07    2.28
   4  -2   8   15.42    1.57
   4  -2   9   39.72    2.76
   4  -2   9   34.40    3.46
   4  -2   9   35.00    2.73
   4  -2  10   19.47    1.41
   4  -2  10   19.41    1.41
   4  -2  11   86.26    4.47
   4  -2  11   72.03    4.26
   4  -1  -6   20.01    4.00
   4  -1  -5   51.43    6.85
   4  -1  -5   34.72    5.41
   4  -1  -4   27.11    4.12
   4  -1  -4   27.97    4.90
   4  -1  -4   28.01    5.29
   4  -1  -4   23.12    4.33
   4  -1  -3  177.72   13.54
   4  -1  -3  147.42   12.82
   4  -1  -3  173.76   13.24
   4  -1  -3  235.20   15.32
   4  -1  -3  209.22   15.92
   4  -1  -3  168.21   13.78
   4  -1  -2  289.52   20.08
   4  -1  -2  312.64   20.86
   4  -1  -2  345.40   22.80
   4  -1  -2  291.24   17.94
   4  -1  -2  318.82   20.58
   4  -1  -2  281.33   19.85
   4  -1  -2  273.95   19.74
   4  -1  -1   28.71    2.46
   4  -1  -1   15.48    3.45
   4  -1  -1   27.60    5.08
   4  -1  -1   15.89    3.42
   4  -1  -1   14.60    3.31
   4  -1   0  216.87   11.97
   4  -1   0  216.76   12.82
   4  -1   0  204.22   15.52
   4  -1   0  203.89   15.49
   4  -1   0  207.41   15.37
   4  -1   0  208.18   15.39
   4  -1   1 1760.64   97.27
   4  -1   1 1860.49  101.46
   4  -1   1 1924.77  101.39
   4  -1   1 1892.10  101.44
   4  -1   1 1894.86  101.45
   4  -1   2   19.62    1.39
   4  -1   2   18.84    3.35
   4  -1   2   15.46    3.14
   4  -1   2   20.16    3.52
   4  -1   2   19.88    3.24
   4  -1   2   18.81    1.32
   4  -1   3   36.63    4.65
   4  -1   3   34.33    4.63
   4  -1   3   40.40    2.44
   4  -1   3   38.38    2.46
   4  -1   3   34.23    2.37
   4  -1   3   34.24    4.58
   4  -1   3   38.01    3.23
   4  -1   3   37.19    3.25
   4  -1   4   17.69    3.20
   4  -1   4   12.57    2.77
   4  -1   4   20.46    1.45
   4  -1   4   15.12    1.28
   4  -1   4   15.63    1.26
   4  -1   4   16.31    1.30
   4  -1   4   16.48    1.31
   4  -1   4   15.05    2.98
   4  -1   4   15.05    1.94
   4  -1   5    0.66    0.64
   4  -1   5    1.70    0.49
   4  -1   5    1.91    1.43
   4  -1   5   -1.16    1.34
   4  -1   5    1.00    0.54
   4  -1   5    1.40    0.42
   4  -1   5    1.22    0.35
   4  -1   5    0.82    1.28
   4  -1   5    1.26    0.98
   4  -1   5    0.67    1.15
   4  -1   6   10.42    1.37
   4  -1   6   10.43    1.27
   4  -1   6   14.24    1.62
   4  -1   6    7.72    2.35
   4  -1   6   13.47    2.11
   4  -1   6   12.10    2.49
   4  -1   7    6.49    1.32
   4  -1   7    6.98    2.24
   4  -1   7    8.37    2.30
   4  -1   7    5.67    1.08
   4  -1   7    6.73    1.62
   4  -1   7    7.64    1.75
   4  -1   7    3.47    0.83
   4  -1   7    3.73    1.88
   4  -1   8   10.46    2.59
   4  -1   8   15.37    3.09
   4  -1   8   15.41    1.48
   4  -1   8    9.32    1.59
   4  -1   8   11.08    2.07
   4  -1   8   11.89    1.44
   4  -1   8   12.57    2.21
   4  -1   8    8.98    1.18
   4  -1   9    7.56    1.11
   4  -1   9    7.17    1.77
   4  -1   9    5.47    0.78
   4  -1   9    5.37    1.01
   4  -1  10    1.93    0.45
   4  -1  10    1.86    0.48
   4  -1  11    0.02    0.20
   4  -1  11    0.09    0.23
   4   0  -7    2.36    0.96
   4   0  -6    6.10    1.43
   4   0  -5  139.96   10.51
   4   0  -5  129.76   10.36
   4   0  -5  144.11   12.08
   4   0  -4   14.50    2.98
   4   0  -4   23.70    3.61
   4   0  -4   23.65    4.13
   4   0  -3   93.12    7.91
   4   0  -3  124.92    9.83
   4   0  -3  109.95   10.87
   4   0  -3  117.93   10.08
   4   0  -2  166.27   13.57
   4   0  -2  249.60   15.42
   4   0  -2  257.42   17.49
   4   0  -2  195.79   15.12
   4   0  -2  205.97   14.17
   4   0  -2  205.13   14.16
   4   0  -2  214.01   14.31
   4   0  -1  115.05   10.70
   4   0  -1   97.93    9.09
   4   0  -1  110.47    7.10
   4   0  -1   99.17    8.31
   4   0  -1  107.93    8.56
   4   0  -1   93.40    8.24
   4   0   0  227.54   15.31
   4   0   0  210.64   13.38
   4   0   0  216.41   15.17
   4   0   0  215.54   15.13
   4   0   0  259.24   13.89
   4   0   1   13.72    2.68
   4   0   1   24.56    1.56
   4   0   1   13.74    2.76
   4   0   1   19.09    3.06
   4   0   1   15.03    3.13
   4   0   2  417.49   24.68
   4   0   2  409.45   21.55
   4   0   2  375.21   24.07
   4   0   2  372.03   21.52
   4   0   2  397.11   24.22
   4   0   2  389.67   24.12
   4   0   3   12.79    0.99
   4   0   3   12.78    1.00
   4   0   3   13.80    1.65
   4   0   3   11.33    2.03
   4   0   3   10.42    2.31
   4   0   3   13.55    2.50
   4   0   3   11.57    2.38
   4   0   3    9.88    1.92
   4   0   4  101.43    5.28
   4   0   4   87.16    7.42
   4   0   4   75.59    7.15
   4   0   4   88.05    5.21
   4   0   4   95.38    6.13
   4   0   4  103.63    6.22
   4   0   4   72.35    6.11
   4   0   4   66.66    6.00
   4   0   4   91.46    7.55
   4   0   4   72.50    7.25
   4   0   5    0.58    0.95
   4   0   5   -0.13    0.52
   4   0   5    0.61    0.40
   4   0   5    0.40    0.57
   4   0   5    0.05    0.36
   4   0   5    0.07    0.42
   4   0   5    0.45    0.40
   4   0   5   -0.04    0.29
   4   0   5    0.19    0.30
   4   0   5   -0.66    0.90
   4   0   5    0.66    1.14
   4   0   5    0.34    1.07
   4   0   6   31.23    2.52
   4   0   6   35.70    3.95
   4   0   6   30.71    4.22
   4   0   6   31.15    2.69
   4   0   6   34.57    2.31
   4   0   6   35.11    2.65
   4   0   6   33.18    2.46
   4   0   6   35.82    3.26
   4   0   6   33.10    4.25
   4   0   6   29.18    4.03
   4   0   7  147.98    8.91
   4   0   7  142.46    8.75
   4   0   7  175.38    8.73
   4   0   7  151.94    9.60
   4   0   7  111.76    8.39
   4   0   7  140.93   10.74
   4   0   7  142.87    8.59
   4   0   7  142.20   11.14
   4   0   7  150.14   11.28
   4   0   8  431.32   23.17
   4   0   8  360.64   25.52
   4   0   8  469.81   24.44
   4   0   8  345.20   22.88
   4   0   8  408.84   23.51
   4   0   8  420.63   23.19
   4   0   8  445.75   23.04
   4   0   9    5.19    0.83
   4   0   9    6.30    1.34
   4   0   9    5.03    0.92
   4   0  10   39.08    2.59
   4   0  10   38.48    3.28
   4   0  10   41.56    2.92
   4   0  11    9.25    0.80
   4   0  11   11.17    0.98
   4   0  12    0.48    0.28
   4   1  -6   57.48    4.99
   4   1  -6   59.41    5.00
   4   1  -5  329.74   19.87
   4   1  -5  320.45   20.13
   4   1  -4    7.51    2.51
   4   1  -4    5.65    1.75
   4   1  -4    5.92    1.73
   4   1  -4    5.16    1.64
   4   1  -4    5.17    1.96
   4   1  -3   91.51    6.98
   4   1  -3   98.72    9.65
   4   1  -3   95.41    7.83
   4   1  -3   86.48    8.53
   4   1  -3   85.04    6.52
   4   1  -3   88.74    7.66
   4   1  -3   96.37    6.38
   4   1  -3   66.84    7.07
   4   1  -2   71.60    6.79
   4   1  -2   90.17    8.13
   4   1  -2   71.79    6.77
   4   1  -2   71.72    6.15
   4   1  -1   27.79    4.17
   4   1  -1   18.55    3.07
   4   1  -1   24.62    2.79
   4   1  -1   18.38    2.93
   4   1  -1   22.83    3.33
   4   1   0   24.21    1.62
   4   1   0   21.03    3.10
   4   1   0   20.06    2.47
   4   1   0   19.78    3.18
   4   1   0   23.00    3.76
   4   1   0   19.55    2.52
   4   1   0   19.56    2.47
   4   1   0   17.37    2.94
   4   1   0   22.63    2.50
   4   1   0   21.73    2.35
   4   1   1   13.08    1.02
   4   1   1   15.35    1.89
   4   1   1   12.68    1.96
   4   1   1   10.99    2.26
   4   1   1   11.14    2.27
   4   1   1   10.00    1.84
   4   1   1   12.08    1.95
   4   1   1   13.05    2.54
   4   1   1   13.93    1.75
   4   1   2    8.87    0.83
   4   1   2    7.03    1.74
   4   1   2    7.40    1.55
   4   1   2    9.18    1.90
   4   1   2    8.06    1.65
   4   1   2    8.16    1.68
   4   1   2   10.12    0.83
   4   1   2    8.12    1.36
   4   1   3    0.07    0.27
   4   1   3    0.22    0.80
   4   1   3   -0.23    0.81
   4   1   3    0.33    0.28
   4   1   3   -0.21    0.85
   4   1   3   -0.21    0.78
   4   1   3    0.45    0.77
   4   1   3    0.14    0.26
   4   1   3    0.31    1.24
   4   1   4   46.85    4.22
   4   1   4   52.22    5.00
   4   1   4   63.22    3.40
   4   1   4   52.09    3.28
   4   1   4   56.46    3.48
   4   1   4   51.43    3.30
   4   1   4   56.42    3.32
   4   1   4   58.62    4.07
   4   1   4   44.24    4.09
   4   1   4   49.19    4.29
   4   1   4   41.04    4.83
   4   1   4   55.68    4.99
   4   1   4   53.73    4.93
   4   1   5    0.30    0.45
   4   1   5   -0.29    0.85
   4   1   5    0.30    0.32
   4   1   5    0.08    0.36
   4   1   5    0.06    0.49
   4   1   5   -0.04    0.34
   4   1   5    0.12    0.57
   4   1   5   -0.54    0.76
   4   1   5    0.30    0.39
   4   1   5   -0.26    0.93
   4   1   5   -0.28    0.86
   4   1   5    0.84    0.96
   4   1   6    9.79    1.76
   4   1   6   10.19    1.34
   4   1   6    8.51    0.90
   4   1   6   10.55    1.21
   4   1   6   11.01    1.14
   4   1   6   10.09    2.24
   4   1   6   12.42    2.40
   4   1   6   11.33    2.33
   4   1   7   53.50    3.93
   4   1   7   51.08    3.72
   4   1   7   55.08    3.61
   4   1   7   54.49    3.63
   4   1   7   54.97    5.29
   4   1   7   54.71    4.37
   4   1   7   44.61    3.50
   4   1   7   57.58    5.76
   4   1   7   54.26    5.53
   4   1   8    3.23    0.97
   4   1   8    1.89    0.77
   4   1   8    2.61    0.66
   4   1   8    2.16    0.67
   4   1   8    1.80    1.46
   4   1   8    2.43    0.72
   4   1   8    0.90    0.88
   4   1   9   56.07    3.95
   4   1   9   52.33    4.43
   4   1   9   68.29    4.25
   4   1   9   63.48    4.05
   4   1  10    4.42    0.71
   4   1  10    3.47    0.70
   4   1  10    3.42    0.74
   4   1  10    4.26    1.15
   4   1  11    1.84    0.60
   4   1  11    2.29    0.89
   4   1  12   -0.21    0.38
   4   1  12    0.34    0.27
   4   2  -7   27.79    3.66
   4   2  -6  338.79   18.55
   4   2  -6  263.10   18.28
   4   2  -5  617.49   32.91
   4   2  -5  464.01   34.32
   4   2  -5  601.49   32.78
   4   2  -5  492.96   34.43
   4   2  -4  197.15   13.06
   4   2  -4  161.77   14.05
   4   2  -4  207.80   13.15
   4   2  -4  200.42   12.69
   4   2  -4  201.32   13.11
   4   2  -4  175.47   14.20
   4   2  -3  222.64   13.44
   4   2  -3  223.89   14.68
   4   2  -3  195.28   15.26
   4   2  -3  209.04   14.41
   4   2  -3  224.32   14.72
   4   2  -3  210.52   15.36
   4   2  -2   20.78    2.62
   4   2  -2   19.89    3.08
   4   2  -2   23.16    3.25
   4   2  -2   25.07    2.64
   4   2  -2   27.37    3.59
   4   2  -2   20.54    3.35
   4   2  -2   20.93    3.09
   4   2  -2   22.30    2.69
   4   2  -2   22.59    3.43
   4   2  -1  215.01   14.68
   4   2  -1  213.26   14.64
   4   2  -1  219.98   14.52
   4   2  -1  236.55   14.53
   4   2  -1  216.53   14.50
   4   2  -1  212.54   14.05
   4   2  -1  209.25   14.39
   4   2   0  438.05   29.24
   4   2   0  439.95   29.24
   4   2   0  446.22   29.06
   4   2   0  531.10   28.88
   4   2   0  521.46   28.93
   4   2   0  513.16   27.21
   4   2   0  449.86   28.99
   4   2   1  216.18   12.70
   4   2   1  189.97   12.49
   4   2   1  177.04   13.12
   4   2   1  200.18   11.27
   4   2   2   78.09    5.66
   4   2   2   71.96    5.99
   4   2   2   76.84    4.61
   4   2   2   68.30    6.07
   4   2   2   77.63    5.40
   4   2   2   74.14    5.34
   4   2   2   71.14    6.11
   4   2   2   74.93    5.27
   4   2   2   67.46    6.30
   4   2   2   90.90    5.98
   4   2   3  785.20   46.43
   4   2   3  797.55   45.02
   4   2   3  845.27   44.98
   4   2   3  799.27   46.61
   4   2   3  831.17   46.29
   4   2   3  813.39   46.27
   4   2   3  784.21   46.57
   4   2   3  886.95   46.36
   4   2   3  811.51   47.43
   4   2   3  807.64   44.94
   4   2   3  886.73   46.34
   4   2   4  844.90   43.44
   4   2   4  798.54   43.30
   4   2   4  713.11   41.53
   4   2   4  796.84   42.33
   4   2   4  744.38   42.66
   4   2   4  760.33   42.87
   4   2   4  826.54   43.39
   4   2   4  739.66   43.70
   4   2   4  764.09   42.88
   4   2   5 3018.25  163.30
   4   2   5 2827.20  162.92
   4   2   5 3050.03  162.32
   4   2   5 3059.65  162.26
   4   2   5 2668.18  162.29
   4   2   5 3052.48  162.29
   4   2   5 3090.40  162.61
   4   2   5 2957.96  164.30
   4   2   5 3021.28  163.32
   4   2   5 3218.20  164.67
   4   2   5 3290.33  164.69
   4   2   6  217.30   11.71
   4   2   6  231.13   11.58
   4   2   6  190.37   11.21
   4   2   6  173.50   11.22
   4   2   6  258.21   14.21
   4   2   6  251.66   14.13
   4   2   6  205.24   12.80
   4   2   7    8.03    1.14
   4   2   7    7.29    0.99
   4   2   7    6.73    1.20
   4   2   7    5.30    0.89
   4   2   8  136.77    8.41
   4   2   8  152.36    8.27
   4   2   8  139.94   10.65
   4   2   8  129.93    8.54
   4   2   8  122.99    8.06
   4   2   9  324.29   19.46
   4   2   9  338.09   18.96
   4   2   9  341.50   19.06
   4   2   9  337.50   19.63
   4   2   9  342.31   22.19
   4   2  10   45.42    2.94
   4   2  10   35.05    2.79
   4   2  10   43.29    2.91
   4   2  10   46.18    3.56
   4   2  11    1.88    0.61
   4   2  11    3.30    0.63
   4   2  11    1.64    0.88
   4   2  12  110.43    6.06
   4   2  12   90.80    6.25
   4   3  -6    7.27    1.30
   4   3  -6    4.98    2.09
   4   3  -6    6.17    1.37
   4   3  -6    4.79    1.78
   4   3  -6    4.29    1.81
   4   3  -5    5.51    1.35
   4   3  -5    2.78    1.02
   4   3  -5    8.25    2.63
   4   3  -5    4.42    1.28
   4   3  -5    6.98    2.38
   4   3  -4  215.79   16.07
   4   3  -4  218.48   13.85
   4   3  -4  202.64   15.94
   4   3  -4  208.20   13.70
   4   3  -3    6.11    1.55
   4   3  -3    8.63    2.79
   4   3  -3    7.28    1.80
   4   3  -3    7.56    1.61
   4   3  -3    6.34    2.45
   4   3  -3    4.88    1.31
   4   3  -3    6.66    1.67
   4   3  -3    5.47    1.27
   4   3  -2    0.85    1.02
   4   3  -2    0.76    1.30
   4   3  -2    0.87    1.63
   4   3  -2   -0.29    0.90
   4   3  -2    0.53    0.75
   4   3  -2   -0.43    1.55
   4   3  -2   -0.21    0.53
   4   3  -2    0.58    0.64
   4   3  -2    0.58    0.85
   4   3  -1  146.47   10.72
   4   3  -1  145.01   10.21
   4   3  -1  130.74    9.38
   4   3  -1  144.60   10.33
   4   3  -1  148.72    9.71
   4   3  -1  143.89   11.00
   4   3  -1  136.90    9.35
   4   3  -1  132.76   10.16
   4   3   0  124.12    9.35
   4   3   0  143.30    9.56
   4   3   0  120.49    9.29
   4   3   0  117.83    9.10
   4   3   0  126.85    9.40
   4   3   0  109.20    8.53
   4   3   0  130.33    7.78
   4   3   0  132.46    7.59
   4   3   0  112.80    9.39
   4   3   0  120.82    8.92
   4   3   1    2.21    1.18
   4   3   1    3.71    0.75
   4   3   1    0.23    0.84
   4   3   1    3.49    1.23
   4   3   1    2.52    1.21
   4   3   1    4.37    0.86
   4   3   1    4.05    1.40
   4   3   1    3.92    0.69
   4   3   2   95.90    5.39
   4   3   2   88.60    5.34
   4   3   2   83.57    6.45
   4   3   2   99.45    6.95
   4   3   2   75.60    5.25
   4   3   2   88.85    5.28
   4   3   2   75.74    6.64
   4   3   3   16.23    2.22
   4   3   3   16.82    2.26
   4   3   3   14.61    2.25
   4   3   3   17.20    1.50
   4   3   3   17.52    1.52
   4   3   3   18.88    2.46
   4   3   3   20.15    1.45
   4   3   4  784.13   43.77
   4   3   4  714.08   41.78
   4   3   4  788.32   41.69
   4   3   4  773.13   43.15
   4   3   4  753.78   41.68
   4   3   4  786.66   43.19
   4   3   5   19.61    1.42
   4   3   5   21.90    2.36
   4   3   5   21.84    2.73
   4   3   5   19.15    2.26
   4   3   5   20.61    1.45
   4   3   5   18.44    1.47
   4   3   6   54.62    3.65
   4   3   6   72.44    4.24
   4   3   6   62.12    3.65
   4   3   6   61.28    4.47
   4   3   6   57.77    4.42
   4   3   6   72.56    5.29
   4   3   7    0.69    0.57
   4   3   7    1.12    0.57
   4   3   7    0.64    0.40
   4   3   7    0.09    0.57
   4   3   8   25.98    2.37
   4   3   8   28.90    2.30
   4   3   8   32.17    4.09
   4   3   8   26.50    1.96
   4   3   8   25.04    2.14
   4   3   8   27.88    2.60
   4   3   9    5.96    1.31
   4   3   9    6.97    1.27
   4   3   9    8.06    1.17
   4   3   9    7.69    0.95
   4   3   9    8.87    2.26
   4   3   9    7.09    1.04
   4   3   9    7.99    1.06
   4   3  10    0.40    0.85
   4   3  10   -0.50    0.71
   4   3  10   -0.06    0.39
   4   3  10    0.48    0.73
   4   3  10   -0.56    0.64
   4   3  10    0.14    0.46
   4   3  11    0.17    0.39
   4   3  11    0.59    0.45
   4   3  11    0.27    0.50
   4   3  11   -0.23    0.84
   4   3  12    1.76    0.47
   4   3  12    0.92    0.65
   4   3  13  125.96    7.04
   4   4  -7  106.21    6.49
   4   4  -6    0.69    1.14
   4   4  -6    0.10    0.63
   4   4  -6   -0.63    1.13
   4   4  -5    9.53    2.51
   4   4  -5    7.41    1.44
   4   4  -5    3.60    1.18
   4   4  -5    3.56    1.67
   4   4  -5    6.49    2.27
   4   4  -4   31.47    3.66
   4   4  -4   45.27    3.57
   4   4  -4   37.58    5.31
   4   4  -4   36.30    3.80
   4   4  -4   35.56    5.35
   4   4  -4   40.32    4.03
   4   4  -4   33.61    4.79
   4   4  -3  145.73   10.97
   4   4  -3  161.11   13.65
   4   4  -3  190.49   11.88
   4   4  -3  184.72   13.45
   4   4  -3  172.42   14.02
   4   4  -3  182.31   10.89
   4   4  -2   16.18    2.10
   4   4  -2   14.04    3.51
   4   4  -2   16.04    2.27
   4   4  -2   13.09    2.31
   4   4  -2   15.46    2.32
   4   4  -2   16.23    2.46
   4   4  -2   15.49    3.20
   4   4  -2   14.09    3.68
   4   4  -1   19.58    2.60
   4   4  -1   17.89    2.71
   4   4  -1   20.33    2.40
   4   4  -1   19.93    2.21
   4   4  -1   21.51    2.56
   4   4  -1   22.56    2.98
   4   4  -1   17.03    2.53
   4   4  -1   23.23    3.94
   4   4  -1   26.81    3.97
   4   4  -1   19.99    2.75
   4   4   0  138.00    7.85
   4   4   0  140.41    8.63
   4   4   0   93.39    8.49
   4   4   0  116.12    8.02
   4   4   0  110.89    7.54
   4   4   0  123.15    8.64
   4   4   0   81.45    8.28
   4   4   0  155.67    9.17
   4   4   0  137.30    7.55
   4   4   0   93.49    9.36
   4   4   0  132.77    9.45
   4   4   0  124.83    9.79
   4   4   1   22.85    2.08
   4   4   1   19.00    2.16
   4   4   1   23.37    2.50
   4   4   1   21.37    2.88
   4   4   1   17.21    1.83
   4   4   1   24.55    2.95
   4   4   1   20.33    2.88
   4   4   1   21.13    2.68
   4   4   1   21.68    2.97
   4   4   1   24.16    3.34
   4   4   1   21.36    1.85
   4   4   2  199.11   13.09
   4   4   2  214.02   11.63
   4   4   2  196.15   11.60
   4   4   2  216.53   13.26
   4   4   2  182.78   12.07
   4   4   2  186.79   11.61
   4   4   2  220.41   13.43
   4   4   2  196.20   11.51
   4   4   3  254.96   14.72
   4   4   3  252.90   14.76
   4   4   3  266.34   14.55
   4   4   3  269.49   16.35
   4   4   3  277.35   16.39
   4   4   3  273.29   16.45
   4   4   3  228.36   14.97
   4   4   3  283.54   16.44
   4   4   3  253.86   15.25
   4   4   4   16.17    1.30
   4   4   4   14.57    1.42
   4   4   4   17.50    1.56
   4   4   4   15.76    1.35
   4   4   4   14.06    1.56
   4   4   4   17.83    2.54
   4   4   4   15.83    2.37
   4   4   4   11.17    1.98
   4   4   4   14.79    1.27
   4   4   4   16.71    2.28
   4   4   4   15.10    2.22
   4   4   5   93.55    5.37
   4   4   5   85.51    5.56
   4   4   5   92.12    5.45
   4   4   5  105.18    6.00
   4   4   5   76.27    6.37
   4   4   5   89.93    6.78
   4   4   5   83.72    6.53
   4   4   5  100.80    7.12
   4   4   5   85.37    5.34
   4   4   6   27.16    2.96
   4   4   6   25.00    2.07
   4   4   6   22.93    2.22
   4   4   6   22.19    2.50
   4   4   6   21.18    2.56
   4   4   6   20.88    2.43
   4   4   6   23.59    1.85
   4   4   6   19.96    1.74
   4   4   7   20.12    1.90
   4   4   7   22.29    1.83
   4   4   7   20.04    1.61
   4   4   7   20.06    1.71
   4   4   7   18.07    2.37
   4   4   7   16.80    1.49
   4   4   8   25.83    2.05
   4   4   8   21.66    1.75
   4   4   8   23.72    3.36
   4   4   8   23.05    2.20
   4   4   8   20.15    1.73
   4   4   9   13.18    1.79
   4   4   9   14.02    1.70
   4   4   9   12.14    1.47
   4   4   9   12.94    1.36
   4   4   9   15.53    2.85
   4   4   9   14.26    1.28
   4   4   9   15.36    1.46
   4   4   9   12.55    1.27
   4   4  10  233.89   14.64
   4   4  10  228.71   14.28
   4   4  10  239.35   14.56
   4   4  10  237.56   14.09
   4   4  10  247.42   14.02
   4   4  10  285.97   14.21
   4   4  11   26.71    1.92
   4   4  11   21.33    2.26
   4   4  11   23.37    1.92
   4   4  11   27.08    1.94
   4   4  12   -0.34    0.63
   4   4  13    8.96    0.70
   4   5  -6   32.73    2.51
   4   5  -6   32.79    2.32
   4   5  -5   29.15    2.56
   4   5  -5   28.77    3.57
   4   5  -5   28.16    3.76
   4   5  -5   32.14    2.75
   4   5  -5   31.48    2.41
   4   5  -5   27.42    3.96
   4   5  -4    4.38    1.19
   4   5  -4    2.82    1.84
   4   5  -4    1.62    1.53
   4   5  -4    4.94    1.41
   4   5  -3   46.16    3.63
   4   5  -3   28.85    3.51
   4   5  -3   40.16    3.41
   4   5  -3   43.23    5.79
   4   5  -3   34.70    3.54
   4   5  -3   31.44    3.68
   4   5  -3   45.34    5.39
   4   5  -3   30.53    3.73
   4   5  -2   38.08    3.89
   4   5  -2   31.82    3.56
   4   5  -2   35.25    3.22
   4   5  -2   28.56    4.90
   4   5  -2   27.57    3.33
   4   5  -2   30.89    3.51
   4   5  -2   34.69    4.92
   4   5  -2   41.97    3.47
   4   5  -1   18.24    2.15
   4   5  -1   16.72    2.38
   4   5  -1   14.04    2.33
   4   5  -1   10.99    2.06
   4   5  -1   11.29    1.82
   4   5  -1   15.20    2.12
   4   5  -1   10.40    1.05
   4   5  -1   14.83    2.42
   4   5  -1    9.33    3.03
   4   5  -1   17.67    1.78
   4   5  -1   20.16    2.70
   4   5  -1   16.21    3.23
   4   5   0    1.35    0.97
   4   5   0    1.92    0.91
   4   5   0    0.54    0.85
   4   5   0    0.49    0.68
   4   5   0    2.26    0.92
   4   5   0    0.46    0.64
   4   5   0    1.63    1.06
   4   5   0    1.52    0.78
   4   5   0    2.14    0.99
   4   5   0    1.62    1.52
   4   5   1  298.62   17.18
   4   5   1  254.87   18.32
   4   5   1  261.22   16.14
   4   5   1  309.59   16.14
   4   5   1  281.28   16.08
   4   5   1  230.84   16.01
   4   5   1  318.35   17.71
   4   5   1  280.58   17.40
   4   5   1  295.95   17.72
   4   5   1  287.55   16.87
   4   5   1  270.92   17.52
   4   5   1  268.59   15.93
   4   5   2  279.06   17.95
   4   5   2  297.40   16.88
   4   5   2  241.19   16.04
   4   5   2  294.33   16.04
   4   5   2  283.19   16.08
   4   5   2  237.55   16.06
   4   5   2  311.69   17.88
   4   5   2  288.33   17.58
   4   5   2  267.95   15.91
   4   5   2  319.87   18.10
   4   5   2  298.88   16.64
   4   5   2  291.46   17.57
   4   5   2  301.80   17.68
   4   5   3   55.44    3.83
   4   5   3   51.82    3.85
   4   5   3   59.44    5.14
   4   5   3   63.99    5.24
   4   5   3   56.78    3.59
   4   5   3   63.54    5.33
   4   5   3   47.84    4.98
   4   5   3   53.94    4.22
   4   5   4  144.71    9.03
   4   5   4  157.58    9.02
   4   5   4  149.98    9.31
   4   5   4  149.57    9.39
   4   5   4  164.84    9.18
   4   5   4  158.90    9.62
   4   5   4  192.33   11.38
   4   5   4  180.59   11.02
   4   5   4  155.62   10.67
   4   5   4  160.80    9.06
   4   5   4  156.58   10.69
   4   5   4  156.50   10.68
   4   5   5   39.32    2.45
   4   5   5   32.24    2.30
   4   5   5   36.93    3.81
   4   5   5   30.48    2.18
   4   5   5   31.59    2.52
   4   5   5   29.19    2.28
   4   5   5   36.98    2.93
   4   5   5   29.93    3.36
   4   5   5   31.25    3.40
   4   5   5   31.89    2.23
   4   5   5   29.23    3.32
   4   5   6   18.19    1.47
   4   5   6   23.64    2.31
   4   5   6   18.74    2.34
   4   5   6   16.41    2.32
   4   5   6   22.36    1.74
   4   5   6   23.02    2.84
   4   5   6   18.98    2.42
   4   5   7   41.75    3.20
   4   5   7   38.56    2.78
   4   5   7   46.31    2.97
   4   5   7   34.62    3.74
   4   5   7   35.56    2.59
   4   5   7   45.46    3.00
   4   5   7   41.90    3.49
   4   5   8    6.19    1.00
   4   5   8    5.27    0.88
   4   5   8    4.07    0.78
   4   5   8    4.56    0.73
   4   5   8    3.76    1.61
   4   5   9    5.17    0.95
   4   5   9    5.16    1.77
   4   5   9    6.56    0.87
   4   5   9    5.99    0.81
   4   5  10   36.84    2.47
   4   5  10   34.05    3.13
   4   5  10   34.17    2.77
   4   5  11   33.24    3.00
   4   5  11   40.93    2.67
   4   5  12    0.21    0.33
   4   5  12    0.57    0.60
   4   5  13    9.30    0.67
   4   5  13    8.74    0.66
   4   6  -5   33.41    2.54
   4   6  -4   72.10    4.54
   4   6  -4   77.38    4.89
   4   6  -4   64.61    4.64
   4   6  -4   66.86    3.98
   4   6  -4   79.93    6.34
   4   6  -4   64.12    6.20
   4   6  -3    2.05    0.85
   4   6  -3    3.59    0.84
   4   6  -3    2.42    1.35
   4   6  -3    1.96    1.58
   4   6  -3    3.52    1.18
   4   6  -2  177.10    9.89
   4   6  -2  135.49   10.07
   4   6  -2  147.58    9.61
   4   6  -2  181.67    9.48
   4   6  -2  136.52    8.59
   4   6  -2  200.34   12.38
   4   6  -2  170.48   12.38
   4   6  -1    1.16    1.14
   4   6  -1    2.77    1.12
   4   6  -1    1.78    1.39
   4   6  -1    3.78    1.21
   4   6  -1    1.90    0.89
   4   6  -1    2.87    1.02
   4   6  -1    2.58    0.48
   4   6  -1    2.48    1.04
   4   6  -1    2.01    1.05
   4   6  -1    1.73    0.97
   4   6  -1    2.24    1.01
   4   6  -1    2.65    0.90
   4   6   0    0.75    1.03
   4   6   0    3.37    1.24
   4   6   0    0.87    1.62
   4   6   0    2.77    1.10
   4   6   0    3.97    1.09
   4   6   0    1.18    0.83
   4   6   0    2.64    1.12
   4   6   0    2.08    0.49
   4   6   0    1.35    1.02
   4   6   0    2.99    1.13
   4   6   0    1.62    1.02
   4   6   0    2.64    1.14
   4   6   0    1.94    0.82
   4   6   1    1.40    1.21
   4   6   1    2.08    1.05
   4   6   1    0.41    1.28
   4   6   1    1.10    0.98
   4   6   1    1.39    0.77
   4   6   1    0.83    0.91
   4   6   1    1.33    1.00
   4   6   1    2.23    0.86
   4   6   1    0.72    0.82
   4   6   1    0.83    0.95
   4   6   1    1.30    1.17
   4   6   1    1.05    0.94
   4   6   1    1.16    0.44
   4   6   2    1.47    1.22
   4   6   2    0.27    0.74
   4   6   2    0.32    1.06
   4   6   2    0.78    0.64
   4   6   2    0.13    0.96
   4   6   2    0.89    0.75
   4   6   2    0.97    0.83
   4   6   2   -0.32    0.98
   4   6   2    0.27    0.84
   4   6   2   -0.28    0.86
   4   6   2    0.65    0.37
   4   6   2    1.89    1.09
   4   6   2    1.20    0.52
   4   6   3  582.12   37.07
   4   6   3  587.72   34.82
   4   6   3  683.70   35.08
   4   6   3  593.04   35.32
   4   6   3  626.88   36.96
   4   6   3  660.14   34.92
   4   6   3  690.47   37.14
   4   6   3  661.43   37.15
   4   6   4  162.95   10.84
   4   6   4  197.26   10.89
   4   6   4  199.44   12.67
   4   6   4  218.07   12.99
   4   6   4  183.87   12.73
   4   6   4  200.09   10.83
   4   6   4  186.05   11.36
   4   6   4  206.49   11.06
   4   6   4  195.97   11.70
   4   6   4  185.58   12.74
   4   6   4  186.82   10.93
   4   6   5   31.97    2.09
   4   6   5   22.46    1.88
   4   6   5   25.03    3.27
   4   6   5   25.55    1.92
   4   6   5   23.92    1.73
   4   6   5   25.37    1.94
   4   6   5   27.95    2.62
   4   6   5   27.09    3.05
   4   6   5   21.91    2.93
   4   6   5   23.30    1.77
   4   6   5   24.34    1.84
   4   6   5   23.34    3.00
   4   6   6  250.53   14.90
   4   6   6  229.06   15.03
   4   6   6  209.37   13.08
   4   6   6  239.12   14.07
   4   6   6  214.94   14.18
   4   6   6  253.90   14.95
   4   6   6  212.50   13.16
   4   6   6  278.74   13.43
   4   6   6  236.51   13.09
   4   6   7   96.36    6.30
   4   6   7   98.68    7.88
   4   6   7  105.41    7.73
   4   6   7  108.05    6.97
   4   6   7  116.72    6.63
   4   6   7  112.24    7.38
   4   6   7  102.49    7.71
   4   6   7  108.20    6.32
   4   6   7  121.08    6.69
   4   6   8   31.79    2.42
   4   6   8   33.18    2.41
   4   6   8   35.20    2.52
   4   6   8   26.79    3.48
   4   6   8   31.25    2.15
   4   6   8   29.48    2.75
   4   6   9    4.09    0.79
   4   6   9    3.53    0.70
   4   6   9    2.52    0.69
   4   6   9    4.16    1.07
   4   6  10    7.93    1.30
   4   6  10    7.56    0.82
   4   6  11    1.24    0.74
   4   6  11    1.59    0.44
   4   6  11    0.92    0.70
   4   6  12   11.43    0.90
   4   6  12   10.24    1.19
   4   7  -4   17.55    1.37
   4   7  -4   15.65    1.33
   4   7  -3  123.98    7.20
   4   7  -3  109.89    7.71
   4   7  -3  137.16    7.79
   4   7  -3  122.97    7.86
   4   7  -2   13.39    1.71
   4   7  -2   12.60    1.77
   4   7  -2   11.24    2.24
   4   7  -2   16.88    1.73
   4   7  -1   28.36    2.30
   4   7  -1   21.89    2.15
   4   7  -1   19.47    2.25
   4   7  -1   20.96    2.33
   4   7  -1   19.82    3.01
   4   7  -1   23.69    3.33
   4   7  -1   21.14    1.58
   4   7   0    2.03    1.18
   4   7   0    3.80    1.16
   4   7   0    3.97    1.03
   4   7   0    4.00    1.06
   4   7   0    3.10    1.04
   4   7   0    3.66    1.53
   4   7   0    3.78    0.59
   4   7   0    3.03    0.58
   4   7   1   90.23    6.94
   4   7   1   83.83    7.26
   4   7   1   81.55    5.83
   4   7   1   98.62    5.74
   4   7   1   76.17    5.83
   4   7   1   92.70    6.98
   4   7   1   91.64    5.62
   4   7   1   87.99    7.10
   4   7   1   76.86    5.04
   4   7   1   78.44    5.04
   4   7   1   79.09    6.73
   4   7   2   30.22    3.81
   4   7   2   29.51    3.53
   4   7   2   36.01    2.67
   4   7   2   24.73    2.73
   4   7   2   29.91    2.52
   4   7   2   31.22    2.17
   4   7   2   35.55    3.74
   4   7   2   25.07    2.09
   4   7   2   34.29    3.81
   4   7   2   27.66    3.48
   4   7   2   29.45    2.18
   4   7   2   26.26    3.50
   4   7   3  172.87   10.79
   4   7   3  199.25   10.78
   4   7   3  185.43   12.49
   4   7   3  173.58   12.66
   4   7   3  191.34   12.80
   4   7   3  204.43   11.34
   4   7   3  209.63   10.97
   4   7   3  184.58   12.70
   4   7   3  187.25   10.79
   4   7   3  174.65   10.83
   4   7   3  180.49   12.86
   4   7   4   81.34    6.29
   4   7   4   66.29    4.63
   4   7   4   68.19    4.30
   4   7   4   66.00    5.04
   4   7   4   67.90    5.84
   4   7   4   81.19    6.30
   4   7   4   72.44    4.33
   4   7   4   63.21    4.11
   4   7   5   64.72    5.64
   4   7   5   60.08    4.00
   4   7   5   65.78    4.43
   4   7   5   63.89    4.89
   4   7   5   65.69    4.13
   4   7   5   55.18    5.18
   4   7   5   70.53    5.82
   4   7   5   64.13    4.12
   4   7   5   80.12    6.34
   4   7   5   65.51    4.07
   4   7   6   95.16    7.03
   4   7   6   83.64    5.24
   4   7   6   91.87    7.20
   4   7   6   83.10    6.11
   4   7   6   85.83    5.32
   4   7   6   97.22    7.06
   4   7   6   85.10    5.20
   4   7   6   79.71    6.32
   4   7   7   67.55    4.18
   4   7   7   69.57    5.69
   4   7   7   65.77    4.69
   4   7   7   60.87    4.19
   4   7   7   62.54    5.03
   4   7   7   76.99    6.07
   4   7   7   62.76    5.57
   4   7   7   67.97    4.30
   4   7   7   75.00    4.45
   4   7   7   66.51    4.14
   4   7   8   31.46    2.68
   4   7   8   29.96    2.12
   4   7   8   33.19    2.45
   4   7   9   85.59    5.67
   4   7  10   12.02    1.04
   4   7  10    9.93    0.91
   4   7  10    8.70    1.27
   4   7  11    0.88    0.33
   4   7  11    0.83    0.56
   4   7  12   12.09    0.92
   4   7  12   22.42    1.15
   4   8  -2    4.39    0.72
   4   8  -2    4.45    0.80
   4   8  -2    5.64    0.77
   4   8  -2    4.10    0.84
   4   8  -2    5.87    0.55
   4   8  -1    0.95    0.56
   4   8  -1    0.20    0.55
   4   8  -1    0.59    0.24
   4   8  -1    0.37    0.43
   4   8  -1    0.90    0.34
   4   8  -1    0.50    0.70
   4   8   0   10.30    0.96
   4   8   0    7.40    1.69
   4   8   0    8.31    1.41
   4   8   0    9.93    1.24
   4   8   0    7.95    1.37
   4   8   0   10.82    1.27
   4   8   0   11.28    0.94
   4   8   0    9.46    0.88
   4   8   1   -0.05    0.38
   4   8   1    0.14    0.72
   4   8   1   -0.09    0.56
   4   8   1    0.11    0.65
   4   8   1    0.54    0.37
   4   8   1    0.26    0.76
   4   8   1    0.42    0.62
   4   8   1    0.10    0.34
   4   8   2    0.16    0.37
   4   8   2    0.55    0.62
   4   8   2    0.11    0.60
   4   8   2    0.22    0.41
   4   8   2   -0.22    0.80
   4   8   2    0.11    0.40
   4   8   3  131.93    8.66
   4   8   3  131.34    8.19
   4   8   3  125.65    7.77
   4   8   3  130.70    8.36
   4   8   3  141.41    7.91
   4   8   3  145.21    7.95
   4   8   4  166.19   10.89
   4   8   4  152.79   10.29
   4   8   4  197.20   10.14
   4   8   4  170.91    9.98
   4   8   4  166.51   11.58
   4   8   4  181.30   10.14
   4   8   5   18.27    1.50
   4   8   5   15.16    2.11
   4   8   5   22.22    1.63
   4   8   5   16.22    1.34
   4   8   5   13.55    2.16
   4   8   5   18.93    1.58
   4   8   6    3.54    0.88
   4   8   6    2.76    1.15
   4   8   6    4.01    0.75
   4   8   6    4.39    0.71
   4   8   6    4.47    0.68
   4   8   6    4.27    1.12
   4   8   7    0.30    0.91
   4   8   7    0.35    0.35
   4   8   7    1.04    0.41
   4   8   7    1.17    0.67
   4   8   7    0.19    0.45
   4   8   8    2.02    0.51
   4   8   8    2.33    0.53
   4   8   8    1.47    0.68
   4   8   8    2.31    0.47
   4   8   8    3.09    1.05
   4   8   9   12.87    1.45
   4   8   9   14.80    1.21
   4   8  10    4.41    0.83
   4   8  10    5.24    1.01
   4   8  10    6.35    0.70
   4   8  10    7.23    0.72
   4   8  11    5.74    0.56
   4   8  11    5.14    0.58
   4   9  -1    0.99    0.26
   4   9   0   15.43    1.43
   4   9   0   17.40    1.58
   4   9   1   12.74    1.52
   4   9   1   12.78    1.25
   4   9   1   13.67    1.39
   4   9   1   14.56    1.12
   4   9   1   15.33    1.14
   4   9   1   14.99    1.16
   4   9   2  168.25    8.91
   4   9   2  137.66    8.98
   4   9   2  161.68    8.87
   4   9   2  144.61    9.41
   4   9   3  251.23   16.31
   4   9   3  246.20   15.85
   4   9   3  311.71   15.83
   4   9   3  292.17   15.73
   4   9   3  287.09   15.75
   4   9   4  273.44   14.36
   4   9   4  249.96   14.20
   4   9   4  251.93   14.28
   4   9   4  230.05   14.92
   4   9   5  110.31    6.65
   4   9   5  122.62    7.09
   4   9   5  120.90    6.72
   4   9   5  109.39    7.48
   4   9   6   45.19    3.85
   4   9   6   47.74    3.44
   4   9   6   54.13    3.30
   4   9   6   49.25    3.20
   4   9   6   55.45    3.30
   4   9   7   31.47    2.01
   4   9   7   24.79    2.52
   4   9   7   28.56    1.98
   4   9   7   25.86    2.15
   4   9   8    6.29    0.72
   4   9   8    6.27    0.86
   4   9   9    2.58    0.45
   4  10   1   20.49    1.32
   4  10   2   41.47    2.53
   4  10   2   43.29    2.55
   4  10   3   71.60    3.98
   4  10   3   69.05    4.01
   4  10   4    0.89    0.30
   4  10   4    0.56    0.33
   4  10   4    0.64    0.64
   4  10   5   55.33    3.28
   4  10   5   49.02    3.65
   4  10   6    0.67    0.35
   4  10   6    1.07    0.34
   4  10   6    0.59    0.25
   4  10   6    0.24    0.61
   4  10   7    5.46    0.60
   4  10   7    7.26    0.66
   4  10   7    7.43    0.66
   4  10   8    0.03    0.22
   5  -8  -5   45.81    3.15
   5  -8  -5   45.58    3.12
   5  -8  -4   84.24    5.08
   5  -8  -4   79.09    4.82
   5  -8  -4   69.10    4.50
   5  -8  -4   75.05    4.81
   5  -8  -3   55.28    3.67
   5  -8  -3   59.99    3.77
   5  -8  -3   54.82    3.65
   5  -8  -3   65.39    4.00
   5  -8  -2   17.63    1.58
   5  -8  -2   13.23    1.32
   5  -8  -2   13.36    1.35
   5  -8  -2   15.35    1.34
   5  -8  -2   16.44    1.55
   5  -8  -1   17.01    1.59
   5  -8  -1   20.06    1.56
   5  -8  -1   21.44    1.78
   5  -8  -1   18.28    1.56
   5  -8  -1   19.25    1.70
   5  -8   0    0.51    1.12
   5  -8   0    0.29    0.46
   5  -8   0    0.13    0.57
   5  -8   1    7.18    1.03
   5  -8   1    8.30    0.92
   5  -8   1    6.39    1.49
   5  -8   1    6.84    0.86
   5  -8   2    4.79    1.19
   5  -7  -6   84.58    5.31
   5  -7  -5    8.16    0.92
   5  -7  -5   10.59    2.32
   5  -7  -4    6.69    0.96
   5  -7  -4    7.50    0.92
   5  -7  -4    8.05    0.96
   5  -7  -3    4.45    0.81
   5  -7  -3    3.42    0.64
   5  -7  -3    3.55    0.72
   5  -7  -3    4.80    0.80
   5  -7  -2    0.38    0.51
   5  -7  -2    0.66    0.44
   5  -7  -2    0.64    0.56
   5  -7  -2    0.41    0.53
   5  -7  -1   17.25    1.65
   5  -7  -1   17.69    1.52
   5  -7  -1   16.30    1.57
   5  -7  -1   18.17    1.58
   5  -7   0    9.68    2.19
   5  -7   0   15.09    1.44
   5  -7   0   15.34    1.53
   5  -7   0   14.54    2.66
   5  -7   0   14.70    1.37
   5  -7   1    8.61    1.03
   5  -7   1   10.05    1.17
   5  -7   1    9.81    1.14
   5  -7   1    8.92    2.00
   5  -7   1   10.00    2.14
   5  -7   1    5.39    1.25
   5  -7   2   17.38    2.72
   5  -7   2   20.90    1.73
   5  -7   3   14.33    1.22
   5  -7   3   12.09    1.22
   5  -7   3   16.00    2.35
   5  -7   4   17.99    1.76
   5  -7   5    7.78    0.86
   5  -6  -6    8.51    2.14
   5  -6  -5    9.10    1.08
   5  -6  -4  100.62    6.17
   5  -6  -4  101.18    6.00
   5  -6  -4   90.97    8.22
   5  -6  -3    5.57    0.83
   5  -6  -3    5.94    0.94
   5  -6  -3    2.44    2.68
   5  -6  -3    0.82    2.26
   5  -6  -3    7.09    2.00
   5  -6  -2   16.93    1.58
   5  -6  -2   19.51    1.57
   5  -6  -2   16.52    2.66
   5  -6  -2   19.90    1.77
   5  -6  -2   13.94    4.37
   5  -6  -2   15.68    4.48
   5  -6  -1  148.45   11.11
   5  -6  -1  147.11   10.48
   5  -6  -1  148.40    8.68
   5  -6  -1  149.52    8.59
   5  -6  -1  153.96    8.54
   5  -6  -1  148.55    8.68
   5  -6   0   52.03    5.50
   5  -6   0   42.16    4.67
   5  -6   0   57.62    3.78
   5  -6   0   56.77    3.69
   5  -6   0   60.10    3.69
   5  -6   0   41.54    7.00
   5  -6   0   35.70    6.77
   5  -6   1   20.79    1.77
   5  -6   1   21.57    1.78
   5  -6   1   17.65    3.14
   5  -6   1   21.22    1.83
   5  -6   1   12.09    3.52
   5  -6   1   11.53    3.48
   5  -6   1   19.11    2.99
   5  -6   2   14.27    1.37
   5  -6   2   10.20    2.96
   5  -6   2   14.03    1.41
   5  -6   2   12.28    2.26
   5  -6   2   13.58    1.38
   5  -6   2   12.26    2.26
   5  -6   2   12.84    2.19
   5  -6   3    2.25    1.10
   5  -6   3    1.68    1.75
   5  -6   3    2.95    0.66
   5  -6   3    2.02    0.62
   5  -6   3    2.17    0.59
   5  -6   4    8.63    1.84
   5  -6   4    8.61    1.15
   5  -6   4   10.86    2.06
   5  -6   4   14.47    2.56
   5  -6   4    8.90    1.00
   5  -6   5    0.35    0.91
   5  -6   5    1.34    0.49
   5  -6   6   94.47    5.31
   5  -6   6   78.72    5.51
   5  -5  -5    9.41    2.26
   5  -5  -5    7.35    3.19
   5  -5  -5   11.74    3.53
   5  -5  -4    2.97    0.63
   5  -5  -4    1.58    2.32
   5  -5  -4    1.57    2.17
   5  -5  -4    1.78    1.23
   5  -5  -4   -0.85    1.76
   5  -5  -3   10.52    1.13
   5  -5  -3   15.89    4.37
   5  -5  -3    3.36    2.67
   5  -5  -3   11.70    2.49
   5  -5  -3    9.53    2.30
   5  -5  -3   10.32    2.01
   5  -5  -3   15.08    4.35
   5  -5  -2    6.71    0.92
   5  -5  -2    5.13    0.87
   5  -5  -2    6.87    3.10
   5  -5  -2    7.77    3.71
   5  -5  -2    6.92    1.99
   5  -5  -2    5.48    1.59
   5  -5  -2    2.77    2.72
   5  -5  -1   22.09    1.76
   5  -5  -1   22.67    1.90
   5  -5  -1   23.33    1.91
   5  -5  -1   23.92    5.39
   5  -5  -1   21.50    5.28
   5  -5  -1   29.00    3.85
   5  -5  -1   24.90    3.25
   5  -5  -1   25.50    3.62
   5  -5  -1   22.05    5.45
   5  -5   0   10.04    2.28
   5  -5   0   15.70    1.40
   5  -5   0   15.78    1.49
   5  -5   0   18.19    1.53
   5  -5   0   13.88    4.24
   5  -5   0   10.70    3.82
   5  -5   0   16.08    2.72
   5  -5   0   15.17    2.73
   5  -5   0   11.46    4.08
   5  -5   1  220.73   14.34
   5  -5   1  205.40   13.65
   5  -5   1  203.66   13.61
   5  -5   1  208.27   11.55
   5  -5   1  209.53   11.54
   5  -5   1  164.49   12.92
   5  -5   1  187.58   11.42
   5  -5   2    1.07    0.57
   5  -5   2    1.61    1.04
   5  -5   2    0.82    1.79
   5  -5   2    0.67    0.58
   5  -5   2    0.68    0.52
   5  -5   2    0.27    0.55
   5  -5   2    0.65    0.95
   5  -5   2    0.74    1.11
   5  -5   2   -0.69    1.76
   5  -5   2   -0.70    1.45
   5  -5   3    9.05    1.10
   5  -5   3    9.11    1.05
   5  -5   3   10.34    1.12
   5  -5   3   10.15    1.09
   5  -5   3   11.74    3.29
   5  -5   3    9.01    1.07
   5  -5   3   10.51    3.01
   5  -5   3    5.31    2.35
   5  -5   4    1.12    1.29
   5  -5   4   -0.27    2.04
   5  -5   4    0.51    0.47
   5  -5   4    0.17    0.38
   5  -5   4   -0.32    0.51
   5  -5   4    0.99    0.53
   5  -5   4   -0.96    1.49
   5  -5   4   -0.49    1.23
   5  -5   4    0.22    0.39
   5  -5   4    0.11    0.67
   5  -5   4    0.29    0.80
   5  -5   5   11.93    1.42
   5  -5   5   12.56    1.26
   5  -5   5   10.67    2.01
   5  -5   5   13.01    2.19
   5  -5   6    0.43    1.03
   5  -5   6    0.50    0.50
   5  -5   6    0.18    0.50
   5  -5   7    6.42    0.69
   5  -5   7    5.27    0.76
   5  -5   7    4.91    1.10
   5  -5   8   12.45    0.86
   5  -4  -6   12.21    2.49
   5  -4  -5   -0.70    1.62
   5  -4  -5   -0.69    1.77
   5  -4  -5    0.74    1.54
   5  -4  -5    1.04    1.25
   5  -4  -4  217.94   13.44
   5  -4  -4  127.26   14.51
   5  -4  -4  113.28   14.11
   5  -4  -4  229.29   13.57
   5  -4  -4  207.58   12.40
   5  -4  -4  126.41   14.94
   5  -4  -3  413.28   33.55
   5  -4  -3  300.43   31.40
   5  -4  -3  614.82   31.27
   5  -4  -3  395.94   32.94
   5  -4  -3  388.03   32.96
   5  -4  -3  543.12   29.14
   5  -4  -3  634.29   30.30
   5  -4  -2   60.18    5.17
   5  -4  -2   71.13    5.87
   5  -4  -2   70.69    4.10
   5  -4  -2   39.27    6.93
   5  -4  -2   56.73    8.43
   5  -4  -2   48.70    7.97
   5  -4  -2   51.11    8.34
   5  -4  -2   61.33    6.18
   5  -4  -1   15.83    4.36
   5  -4  -1   18.43    4.87
   5  -4  -1    7.00    3.17
   5  -4  -1   21.89    1.64
   5  -4  -1   17.00    2.41
   5  -4  -1   20.74    3.14
   5  -4  -1   19.13    2.80
   5  -4  -1   15.80    4.67
   5  -4   0    1.63    2.24
   5  -4   0    1.65    2.42
   5  -4   0    1.67    0.56
   5  -4   0   -2.57    2.21
   5  -4   0    2.34    1.29
   5  -4   0    1.07    1.04
   5  -4   0    0.86    2.00
   5  -4   1  128.96    9.75
   5  -4   1  144.42    8.28
   5  -4   1  130.38    8.25
   5  -4   1  143.24    8.33
   5  -4   1  153.98   14.13
   5  -4   1  171.21   14.63
   5  -4   1  143.35   10.16
   5  -4   1  134.82   10.01
   5  -4   1  170.06   14.96
   5  -4   1  161.68   11.00
   5  -4   2    7.34    1.94
   5  -4   2    7.59    0.98
   5  -4   2    7.02    0.95
   5  -4   2    8.02    1.79
   5  -4   2    7.37    1.69
   5  -4   2    6.78    3.24
   5  -4   2    5.60    0.87
   5  -4   2    4.17    2.09
   5  -4   3   20.61    2.96
   5  -4   3   15.87    3.13
   5  -4   3   19.57    1.69
   5  -4   3   19.87    1.62
   5  -4   3   21.44    1.71
   5  -4   3   21.20    1.72
   5  -4   3   18.24    2.79
   5  -4   3   18.08    1.61
   5  -4   3   22.24    4.53
   5  -4   3   18.52    4.20
   5  -4   4    0.25    0.73
   5  -4   4   -0.59    2.04
   5  -4   4    0.99    0.49
   5  -4   4    0.45    0.40
   5  -4   4    0.82    0.47
   5  -4   4   -0.63    1.46
   5  -4   4    0.72    0.40
   5  -4   4    0.57    1.55
   5  -4   4    0.57    1.19
   5  -4   5   33.81    2.34
   5  -4   5   34.09    2.45
   5  -4   5   34.12    4.31
   5  -4   5   30.49    2.26
   5  -4   5   31.16    2.74
   5  -4   5   26.47    3.29
   5  -4   5   28.55    4.55
   5  -4   5   34.29    4.97
   5  -4   6    4.93    0.95
   5  -4   6    5.42    1.70
   5  -4   6    2.61    1.26
   5  -4   6    3.88    0.80
   5  -4   7    0.47    0.51
   5  -4   7    0.62    1.14
   5  -4   7    0.06    0.39
   5  -4   7    0.26    0.71
   5  -4   7    0.32    0.49
   5  -4   8   25.67    2.49
   5  -4   8   30.14    1.98
   5  -4   8   26.37    2.07
   5  -4   9    2.87    0.32
   5  -3  -6   27.23    3.63
   5  -3  -5   -0.63    1.45
   5  -3  -5    0.62    1.59
   5  -3  -4    3.54    2.22
   5  -3  -4    4.04    2.22
   5  -3  -4    4.03    2.62
   5  -3  -4   10.66    3.39
   5  -3  -3    9.02    1.69
   5  -3  -3    2.85    2.11
   5  -3  -3    2.13    2.23
   5  -3  -3    3.72    2.69
   5  -3  -2   14.29    3.97
   5  -3  -2   21.09    4.81
   5  -3  -2   30.03    3.08
   5  -3  -2   16.30    4.52
   5  -3  -2   22.88    4.94
   5  -3  -1   75.80    4.39
   5  -3  -1   50.87    7.76
   5  -3  -1   60.61    8.77
   5  -3  -1   66.06    5.68
   5  -3  -1   59.17    8.43
   5  -3  -1   88.25    9.80
   5  -3   0   -0.75    2.34
   5  -3   0   -0.76    2.07
   5  -3   0    0.05    0.36
   5  -3   0   -0.66    1.81
   5  -3   0   -0.79    2.02
   5  -3   0    0.10    0.38
   5  -3   0    0.21    0.71
   5  -3   0    0.49    0.98
   5  -3   1  144.64   13.16
   5  -3   1  133.33   12.66
   5  -3   1  118.62    7.15
   5  -3   1   95.20   10.48
   5  -3   1  111.62    8.42
   5  -3   1  126.04    8.93
   5  -3   1  124.18    7.19
   5  -3   1  132.44    7.30
   5  -3   1  112.51   12.13
   5  -3   2   30.29    5.58
   5  -3   2   32.61    5.85
   5  -3   2   40.67    3.83
   5  -3   2   37.01    2.57
   5  -3   2   34.71    2.45
   5  -3   2   41.84    4.14
   5  -3   2   34.56    2.46
   5  -3   2   36.98    2.54
   5  -3   2   43.31    6.59
   5  -3   3   22.02    4.40
   5  -3   3   24.75    4.80
   5  -3   3   20.93    1.67
   5  -3   3   20.58    2.51
   5  -3   3   22.75    2.93
   5  -3   3   17.16    4.25
   5  -3   3   18.38    3.05
   5  -3   3   19.07    1.64
   5  -3   4   95.63    7.77
   5  -3   4   89.99    5.79
   5  -3   4   92.68    5.65
   5  -3   4  100.72    5.77
   5  -3   4  105.94    5.87
   5  -3   4   81.75    6.74
   5  -3   4   92.57    7.34
   5  -3   4   90.54    7.34
   5  -3   4   97.59    9.81
   5  -3   5   65.14    5.78
   5  -3   5   53.85    3.49
   5  -3   5   52.36    4.73
   5  -3   5   55.33    6.67
   5  -3   5   56.82    3.55
   5  -3   6   15.59    3.45
   5  -3   6   16.74    3.55
   5  -3   6   18.35    2.67
   5  -3   6   20.23    1.73
   5  -3   6   17.78    2.80
   5  -3   6   18.77    3.89
   5  -3   7   37.25    3.91
   5  -3   7   33.00    2.41
   5  -3   7   37.94    2.66
   5  -3   7   34.56    3.47
   5  -3   8    2.84    0.68
   5  -3   8    3.49    0.76
   5  -3   8    3.39    1.35
   5  -3   9    2.05    0.50
   5  -3   9    1.25    0.48
   5  -2  -4   45.61    6.43
   5  -2  -4   49.76    6.60
   5  -2  -4   58.83    7.51
   5  -2  -3   33.83    5.46
   5  -2  -3   26.39    4.99
   5  -2  -3   29.44    5.29
   5  -2  -3   39.34    5.88
   5  -2  -2   81.62    9.55
   5  -2  -2   94.11    9.99
   5  -2  -2  106.72   10.53
   5  -2  -1    4.57    2.73
   5  -2  -1    7.88    2.91
   5  -2  -1    5.39    2.55
   5  -2  -1    7.51    3.11
   5  -2   0   26.70    5.22
   5  -2   0   24.92    5.08
   5  -2   0   30.87    3.21
   5  -2   0   18.07    4.28
   5  -2   0   33.38    5.67
   5  -2   1    3.26    1.12
   5  -2   1    6.58    0.77
   5  -2   1    7.56    3.02
   5  -2   1    3.81    2.21
   5  -2   1    6.54    0.79
   5  -2   1    8.80    2.94
   5  -2   1    6.61    3.08
   5  -2   2   12.65    1.85
   5  -2   2    7.15    2.95
   5  -2   2    6.02    2.71
   5  -2   2   10.00    0.98
   5  -2   2   10.41    1.03
   5  -2   2   15.25    3.29
   5  -2   2    8.67    3.07
   5  -2   3   15.30    2.58
   5  -2   3   13.98    1.31
   5  -2   3   19.54    1.48
   5  -2   3   14.96    1.38
   5  -2   3   15.77    1.35
   5  -2   3   13.84    3.51
   5  -2   3   11.76    3.35
   5  -2   3   19.40    4.14
   5  -2   3   17.14    2.12
   5  -2   3   15.95    2.32
   5  -2   3   19.49    2.49
   5  -2   4   53.74    4.91
   5  -2   4   47.24    6.23
   5  -2   4   47.20    6.09
   5  -2   4   45.64    3.06
   5  -2   4   48.55    3.16
   5  -2   4   47.69    6.25
   5  -2   4   50.48    4.80
   5  -2   4   42.96    4.28
   5  -2   5    0.73    1.15
   5  -2   5    1.13    0.94
   5  -2   5    0.45    0.33
   5  -2   5    1.22    0.70
   5  -2   5    0.31    1.17
   5  -2   5   -0.69    0.79
   5  -2   5    0.36    0.48
   5  -2   5    0.25    0.36
   5  -2   5    0.53    1.47
   5  -2   5    0.48    1.22
   5  -2   5   -0.50    1.46
   5  -2   5   -0.50    1.28
   5  -2   6   64.61    4.00
   5  -2   6   66.61    7.32
   5  -2   6   65.58    5.36
   5  -2   6   64.33    4.55
   5  -2   7  116.83    7.09
   5  -2   7  118.45    8.30
   5  -2   7  116.90   10.13
   5  -2   7  106.26    9.84
   5  -2   7  122.93    8.90
   5  -2   8   18.03    1.59
   5  -2   8   18.83    2.59
   5  -2   8   19.33    2.51
   5  -2   8   14.06    1.49
   5  -2   9    2.25    0.58
   5  -2   9    2.60    0.68
   5  -2  10    3.04    0.44
   5  -2  10    2.99    0.39
   5  -1  -5    4.37    1.82
   5  -1  -5    0.44    1.38
   5  -1  -4  116.82   11.52
   5  -1  -3    1.56    1.28
   5  -1  -3   -0.65    2.13
   5  -1  -2   11.40    5.02
   5  -1  -2   13.91    3.54
   5  -1  -2   13.45    3.67
   5  -1  -2   13.04    3.50
   5  -1  -1   33.68    5.21
   5  -1  -1   34.49    2.26
   5  -1  -1   28.52    4.85
   5  -1  -1   34.00    5.30
   5  -1   0    6.93    2.81
   5  -1   0   15.42    3.71
   5  -1   0    9.72    0.88
   5  -1   0    8.69    1.43
   5  -1   0    7.90    2.99
   5  -1   0    9.54    3.16
   5  -1   1  109.88    9.92
   5  -1   1   94.11    9.41
   5  -1   1  103.25    5.86
   5  -1   1  106.30    9.81
   5  -1   1   96.41    5.81
   5  -1   1  119.33   10.52
   5  -1   2    3.26    0.55
   5  -1   2    0.48    1.51
   5  -1   2    3.42    2.10
   5  -1   2    3.45    0.50
   5  -1   2    3.00    1.73
   5  -1   2    4.84    2.08
   5  -1   3   80.96    6.02
   5  -1   3   87.31    6.24
   5  -1   3   83.83    4.84
   5  -1   3   80.54    4.79
   5  -1   3   73.03    7.77
   5  -1   3   70.33    7.73
   5  -1   3   83.49    4.84
   5  -1   3   55.75    6.52
   5  -1   3   74.78    7.84
   5  -1   3   55.08    6.51
   5  -1   4   44.57    3.02
   5  -1   4   48.89    3.08
   5  -1   4   47.50    5.76
   5  -1   4   45.11    5.64
   5  -1   4   53.01    3.16
   5  -1   4   42.73    3.00
   5  -1   4   42.87    2.96
   5  -1   4   43.62    5.72
   5  -1   4   46.37    4.07
   5  -1   4   55.73    4.34
   5  -1   5    3.90    1.24
   5  -1   5    4.71    1.19
   5  -1   5    3.98    0.70
   5  -1   5    0.90    1.41
   5  -1   5    2.27    1.51
   5  -1   5    3.77    0.75
   5  -1   5    4.12    0.67
   5  -1   5    3.32    0.54
   5  -1   5    3.34    1.86
   5  -1   5    3.11    1.26
   5  -1   5    3.10    1.73
   5  -1   5    3.18    0.84
   5  -1   6    1.12    0.54
   5  -1   6    0.30    0.74
   5  -1   6    0.33    1.02
   5  -1   6   -1.43    1.98
   5  -1   6    1.46    0.69
   5  -1   6    0.86    0.46
   5  -1   6   -0.45    1.62
   5  -1   6   -0.46    1.57
   5  -1   6    0.90    1.17
   5  -1   7   -0.09    0.60
   5  -1   7   -0.96    1.31
   5  -1   7    0.37    1.28
   5  -1   7   -0.58    1.21
   5  -1   7   -0.20    0.64
   5  -1   7    0.10    0.64
   5  -1   8    6.96    1.00
   5  -1   8    7.70    1.16
   5  -1   8    9.73    1.95
   5  -1   8    4.16    0.91
   5  -1   8    4.39    2.43
   5  -1   8    3.98    2.27
   5  -1   8    5.87    1.47
   5  -1   9   54.03    3.44
   5  -1   9   45.40    3.22
   5  -1  10    5.79    0.83
   5  -1  10    5.33    0.57
   5  -1  11   21.02    1.31
   5  -1  11   16.77    1.33
   5   0  -6   47.03    4.40
   5   0  -5   -0.34    0.86
   5   0  -4    0.43    1.08
   5   0  -4    0.43    1.00
   5   0  -4   -1.25    1.84
   5   0  -3    5.93    1.64
   5   0  -3    3.56    1.92
   5   0  -3    4.50    1.89
   5   0  -3    5.67    2.55
   5   0  -2   58.29    6.13
   5   0  -2   57.42    6.51
   5   0  -2   61.58    7.66
   5   0  -2   61.14    6.60
   5   0  -1  218.16   12.16
   5   0  -1  179.39   14.80
   5   0  -1  174.67   13.23
   5   0  -1  189.15   13.43
   5   0  -1  184.80   11.53
   5   0   0   51.87    6.40
   5   0   0   54.69    6.29
   5   0   0   60.29    6.44
   5   0   0   63.90    6.57
   5   0   0   66.34    5.02
   5   0   0   73.12    4.22
   5   0   0   81.36    5.62
   5   0   1   29.98    4.29
   5   0   1   29.70    4.23
   5   0   1   34.99    2.24
   5   0   1   33.73    5.21
   5   0   1   32.37    4.33
   5   0   1   34.64    2.25
   5   0   1   37.85    3.36
   5   0   2   -0.37    1.37
   5   0   2   -0.37    1.28
   5   0   2    0.36    0.31
   5   0   2   -0.37    1.27
   5   0   2   -0.37    1.38
   5   0   2   -0.36    1.31
   5   0   2    0.61    0.30
   5   0   2    0.42    0.32
   5   0   3  167.13   12.52
   5   0   3  173.70   13.05
   5   0   3  181.86   10.22
   5   0   3  169.69   10.19
   5   0   3  202.36   10.33
   5   0   3  206.32   11.72
   5   0   3  173.82   13.08
   5   0   3  162.55   12.90
   5   0   3  160.61   12.47
   5   0   3  140.13   13.26
   5   0   4    7.05    2.53
   5   0   4   21.47    1.47
   5   0   4   16.17    1.27
   5   0   4   13.45    2.85
   5   0   4   13.62    2.94
   5   0   4   16.80    2.12
   5   0   4   15.25    2.04
   5   0   4   14.41    2.29
   5   0   4   15.27    2.93
   5   0   4   10.51    2.03
   5   0   5   16.34    2.12
   5   0   5   16.98    1.43
   5   0   5   19.43    3.28
   5   0   5   17.32    3.22
   5   0   5   19.64    1.58
   5   0   5   15.97    1.35
   5   0   5   18.14    1.43
   5   0   5   16.10    3.18
   5   0   5   13.84    2.93
   5   0   5   14.58    1.60
   5   0   6    0.32    1.37
   5   0   6    0.33    0.62
   5   0   6    0.51    0.41
   5   0   6   -0.81    1.52
   5   0   6    0.82    1.41
   5   0   6    0.37    0.55
   5   0   6    0.28    0.36
   5   0   6    2.14    1.47
   5   0   6    2.13    1.38
   5   0   6    0.62    0.67
   5   0   6   -0.31    0.72
   5   0   7    0.42    1.16
   5   0   7    0.43    0.99
   5   0   7   -0.09    0.58
   5   0   7    1.35    1.32
   5   0   7    0.69    1.14
   5   0   7    0.37    0.59
   5   0   7   -0.53    1.06
   5   0   7    0.38    0.64
   5   0   8    5.08    1.87
   5   0   8    6.40    2.08
   5   0   8    3.06    1.55
   5   0   8    2.47    0.82
   5   0   8    3.09    0.79
   5   0   8    2.93    0.88
   5   0   9    2.12    0.72
   5   0   9    1.02    0.51
   5   0   9    2.26    0.68
   5   0  10    3.39    0.59
   5   0  10    2.64    0.67
   5   0  11    2.51    0.53
   5   1  -6    0.21    0.59
   5   1  -5    8.15    1.73
   5   1  -4  168.30   12.82
   5   1  -4  185.05   14.49
   5   1  -4  174.84   12.89
   5   1  -4  181.40   12.77
   5   1  -3    2.06    1.54
   5   1  -3    1.17    1.83
   5   1  -3    0.82    1.20
   5   1  -3   -0.75    1.17
   5   1  -2   38.58    4.93
   5   1  -2   36.85    5.52
   5   1  -2   36.70    4.13
   5   1  -2   28.07    4.37
   5   1  -2   34.99    3.81
   5   1  -1   41.01    5.00
   5   1  -1   34.24    5.41
   5   1  -1   39.61    3.80
   5   1  -1   24.88    3.84
   5   1  -1   36.43    4.74
   5   1   0   54.96    6.33
   5   1   0   42.45    5.13
   5   1   0   39.23    4.98
   5   1   0   48.53    4.16
   5   1   0   41.80    5.07
   5   1   0   42.51    4.14
   5   1   1  123.60    6.68
   5   1   1  134.32    8.36
   5   1   1  103.22    9.18
   5   1   1  108.80    8.26
   5   1   1   95.67    8.01
   5   1   1   96.39    9.09
   5   1   1   94.58    9.10
   5   1   1  105.06    7.69
   5   1   2    0.77    0.97
   5   1   2    1.05    0.90
   5   1   2    1.64    0.46
   5   1   2    2.07    1.48
   5   1   2    0.49    0.72
   5   1   2    1.36    1.28
   5   1   2    1.99    1.65
   5   1   2    1.51    0.43
   5   1   2    2.11    0.89
   5   1   3    3.85    0.58
   5   1   3    2.50    1.23
   5   1   3    0.84    0.94
   5   1   3    2.58    0.52
   5   1   3    3.25    1.31
   5   1   3    1.75    1.11
   5   1   3    3.26    1.33
   5   1   3    2.95    0.51
   5   1   3    3.68    1.65
   5   1   4  189.54   13.64
   5   1   4  224.33   13.23
   5   1   4  193.05   13.52
   5   1   4  220.63   12.20
   5   1   4  193.90   12.01
   5   1   4  234.87   12.11
   5   1   4  249.82   12.19
   5   1   4  196.07   12.00
   5   1   4  188.74   14.85
   5   1   4  194.46   13.68
   5   1   4  223.96   14.56
   5   1   4  212.99   14.44
   5   1   4  208.19   14.37
   5   1   5   21.33    2.33
   5   1   5   22.43    2.31
   5   1   5   22.75    1.70
   5   1   5   24.07    1.68
   5   1   5   21.47    1.80
   5   1   5   20.71    1.62
   5   1   5   19.01    1.52
   5   1   5   23.67    3.50
   5   1   5   16.75    2.97
   5   1   5   21.01    3.26
   5   1   5   23.94    3.39
   5   1   6    2.32    0.72
   5   1   6    3.18    1.32
   5   1   6    3.27    0.57
   5   1   6    3.30    0.66
   5   1   6    2.38    0.72
   5   1   6    4.94    0.84
   5   1   6    3.56    0.60
   5   1   6    3.36    1.66
   5   1   6    4.52    0.84
   5   1   6    2.50    1.35
   5   1   6    3.61    1.64
   5   1   7   47.27    3.57
   5   1   7   52.43    3.51
   5   1   7   53.18    3.56
   5   1   7   46.21    5.09
   5   1   7   58.14    5.87
   5   1   7   53.80    5.68
   5   1   7   45.46    3.64
   5   1   7   47.89    3.18
   5   1   8   -0.11    0.71
   5   1   8    1.76    0.67
   5   1   8   -0.36    1.31
   5   1   8    0.63    0.64
   5   1   8    1.05    0.79
   5   1   8    0.53    0.59
   5   1   9   20.00    1.79
   5   1   9   15.79    2.96
   5   1   9   13.84    1.82
   5   1   9   16.01    1.71
   5   1   9   17.11    1.56
   5   1   9   14.38    1.52
   5   1  10   77.99    5.75
   5   1  10   87.56    5.47
   5   1  10   97.71    5.48
   5   1  11   18.77    1.42
   5   1  11   17.37    1.46
   5   1  12    0.33    0.21
   5   2  -6   47.87    4.66
   5   2  -5  415.19   24.83
   5   2  -4   40.26    4.14
   5   2  -4   39.04    4.66
   5   2  -4   45.39    4.58
   5   2  -3   32.34    4.04
   5   2  -3   34.38    4.24
   5   2  -3   25.51    3.90
   5   2  -3   38.69    3.56
   5   2  -3   33.87    4.23
   5   2  -2    5.10    0.88
   5   2  -2    3.84    1.71
   5   2  -2    4.70    1.78
   5   2  -2    6.81    1.86
   5   2  -2    6.22    1.76
   5   2  -2    2.76    1.19
   5   2  -2    3.88    1.77
   5   2  -2    5.58    1.41
   5   2  -1   50.93    3.41
   5   2  -1   50.37    5.62
   5   2  -1   45.24    4.53
   5   2  -1   51.10    4.99
   5   2  -1   50.98    4.88
   5   2  -1   45.93    5.28
   5   2  -1   47.91    4.97
   5   2  -1   52.10    5.60
   5   2   0  120.95   10.80
   5   2   0  149.36    8.68
   5   2   0  132.13   10.95
   5   2   0  137.71   10.86
   5   2   0  145.40   11.08
   5   2   0  154.92   10.43
   5   2   0  127.39    9.92
   5   2   0  160.01    8.68
   5   2   1  357.80   18.47
   5   2   1  316.27   18.32
   5   2   1  310.20   18.29
   5   2   1  381.24   20.55
   5   2   1  302.20   20.77
   5   2   1  328.41   19.94
   5   2   1  305.84   20.96
   5   2   2    0.98    0.90
   5   2   2    0.94    0.46
   5   2   2    0.28    0.40
   5   2   2    1.01    0.40
   5   2   2    0.65    1.06
   5   2   2    1.22    1.18
   5   2   2    0.21    0.68
   5   2   2    0.36    1.05
   5   2   2    0.11    0.36
   5   2   2    0.67    0.66
   5   2   3   10.78    1.05
   5   2   3   10.70    1.06
   5   2   3   10.84    1.05
   5   2   3   10.41    0.99
   5   2   3   10.75    1.85
   5   2   3    7.35    1.91
   5   2   3    7.77    1.54
   5   2   3    8.95    1.93
   5   2   3    9.73    1.73
   5   2   3    7.78    1.64
   5   2   3    9.39    2.06
   5   2   4  254.18   16.43
   5   2   4  294.05   15.93
   5   2   4  252.48   16.21
   5   2   4  262.28   14.62
   5   2   4  255.30   14.65
   5   2   4  249.70   14.60
   5   2   4  256.56   17.41
   5   2   4  268.68   16.54
   5   2   4  261.47   16.46
   5   2   4  263.67   16.49
   5   2   4  281.99   16.60
   5   2   5   11.15    1.83
   5   2   5   10.12    1.28
   5   2   5   15.01    1.84
   5   2   5   16.27    1.27
   5   2   5   14.51    1.43
   5   2   5   14.40    1.19
   5   2   5   13.11    1.20
   5   2   5   13.63    2.61
   5   2   5   15.66    2.54
   5   2   5   14.40    2.44
   5   2   5   11.53    1.84
   5   2   6  153.95    8.92
   5   2   6  136.26    8.81
   5   2   6  169.28    9.33
   5   2   6  163.59    8.91
   5   2   6  183.39    9.22
   5   2   6  152.91   10.88
   5   2   6  135.13    9.09
   5   2   6  179.93   11.74
   5   2   6  167.70   11.51
   5   2   7    0.08    0.50
   5   2   7    0.19    0.63
   5   2   7   -0.24    0.45
   5   2   7    0.11    0.39
   5   2   7   -0.55    0.76
   5   2   7   -0.15    0.49
   5   2   8    0.79    0.64
   5   2   8    0.75    0.71
   5   2   8    0.84    0.85
   5   2   8    1.41    0.61
   5   2   9  224.86   13.49
   5   2   9  221.25   13.20
   5   2   9  216.30   13.63
   5   2   9  227.31   13.37
   5   2   9  219.93   13.74
   5   2  10   37.97    2.53
   5   2  10   40.20    2.63
   5   2  10   31.04    2.52
   5   2  10   32.22    2.92
   5   2  11   24.89    1.79
   5   2  11   26.29    1.79
   5   2  11   25.57    1.85
   5   2  12    6.05    0.58
   5   2  12    2.92    0.44
   5   3  -6   11.05    1.12
   5   3  -5    4.55    1.52
   5   3  -5    3.46    1.09
   5   3  -5    1.58    1.19
   5   3  -4  268.29   16.15
   5   3  -4  233.78   16.86
   5   3  -4  247.46   15.86
   5   3  -3   18.32    2.78
   5   3  -3   17.62    2.53
   5   3  -3   12.35    2.68
   5   3  -3   14.15    2.27
   5   3  -3   16.14    2.59
   5   3  -3   17.90    2.73
   5   3  -2   69.41    4.56
   5   3  -2   58.36    6.14
   5   3  -2   65.37    5.51
   5   3  -2   66.43    4.80
   5   3  -2   67.99    6.37
   5   3  -2   73.35    6.61
   5   3  -2   54.04    6.18
   5   3  -2   70.42    6.37
   5   3  -1    5.97    1.58
   5   3  -1    5.33    1.84
   5   3  -1    6.07    1.92
   5   3  -1    7.26    1.58
   5   3  -1    6.42    1.05
   5   3  -1    6.53    1.78
   5   3  -1    3.70    1.67
   5   3  -1    5.94    1.91
   5   3   0    8.11    1.14
   5   3   0    9.78    2.02
   5   3   0   10.09    2.30
   5   3   0    6.99    2.04
   5   3   0    8.94    1.84
   5   3   0    7.97    1.10
   5   3   0   10.36    2.22
   5   3   0   12.57    2.34
   5   3   0    6.29    1.85
   5   3   1   25.16    2.07
   5   3   1   23.41    2.00
   5   3   1   22.53    3.25
   5   3   1   22.52    3.39
   5   3   1   22.63    3.40
   5   3   1   25.73    3.40
   5   3   1   22.65    1.94
   5   3   1   20.18    2.97
   5   3   2  379.37   21.01
   5   3   2  376.60   20.98
   5   3   2  369.82   23.23
   5   3   2  371.22   23.26
   5   3   2  370.49   22.67
   5   3   2  390.50   23.25
   5   3   2  416.33   23.08
   5   3   3    7.75    1.76
   5   3   3   10.05    2.10
   5   3   3    6.18    0.94
   5   3   3    7.80    0.94
   5   3   3    5.26    0.88
   5   3   3    8.11    1.90
   5   3   3    9.69    1.90
   5   3   4  163.80    8.97
   5   3   4  140.97    9.00
   5   3   4  155.92    8.97
   5   3   4  162.86   10.60
   5   3   4  152.13   11.30
   5   3   4  149.19   10.58
   5   3   4  152.23   10.65
   5   3   5   23.39    2.66
   5   3   5   15.74    1.54
   5   3   5   16.66    1.51
   5   3   5   20.85    1.49
   5   3   5   20.16    1.50
   5   3   5   17.86    1.51
   5   3   5   16.89    1.97
   5   3   5   17.48    2.75
   5   3   5   20.71    2.52
   5   3   6    5.86    0.71
   5   3   6    5.94    0.99
   5   3   6    5.36    1.48
   5   3   6    4.72    0.69
   5   3   6    5.41    0.84
   5   3   6    5.71    0.80
   5   3   7   23.72    2.07
   5   3   7   26.17    1.98
   5   3   7   23.79    2.25
   5   3   7   30.43    2.17
   5   3   7   25.62    2.99
   5   3   8   -0.22    0.67
   5   3   8   -0.08    0.50
   5   3   8    0.17    0.37
   5   3   8    0.75    0.77
   5   3   8    0.36    1.26
   5   3   9   35.60    2.99
   5   3   9   37.05    2.40
   5   3   9   37.46    2.72
   5   3   9   34.17    4.46
   5   3   9   34.94    2.52
   5   3   9   31.71    3.00
   5   3  10    4.68    1.12
   5   3  10    4.12    0.99
   5   3  10    2.72    0.85
   5   3  10    3.96    0.68
   5   3  10    1.87    1.47
   5   3  10    4.09    0.68
   5   3  10    4.12    0.74
   5   3  11    0.38    0.70
   5   3  11    0.85    0.41
   5   3  11    1.20    0.44
   5   3  11    1.42    0.47
   5   4  -6   23.39    1.73
   5   4  -5    2.36    1.13
   5   4  -5    1.40    0.54
   5   4  -5    1.79    0.72
   5   4  -4   14.02    2.55
   5   4  -4   12.49    2.04
   5   4  -4   12.64    2.58
   5   4  -4   11.93    1.39
   5   4  -4   11.39    1.61
   5   4  -3    5.12    1.81
   5   4  -3    7.16    2.17
   5   4  -3    6.39    1.62
   5   4  -3    6.24    1.33
   5   4  -3    3.72    1.85
   5   4  -3    5.75    1.03
   5   4  -2   21.81    2.02
   5   4  -2   23.16    3.09
   5   4  -2   17.98    2.53
   5   4  -2   15.58    3.04
   5   4  -2   16.95    3.33
   5   4  -2   17.77    2.67
   5   4  -2   20.52    2.97
   5   4  -2   20.19    2.22
   5   4  -1    2.24    1.01
   5   4  -1    0.65    0.96
   5   4  -1    2.23    0.97
   5   4  -1    2.30    1.04
   5   4  -1    2.91    1.35
   5   4  -1    3.36    1.60
   5   4  -1    1.22    1.33
   5   4  -1    1.36    0.90
   5   4  -1    1.96    0.71
   5   4  -1    3.04    1.00
   5   4   0    0.11    0.77
   5   4   0    0.11    0.73
   5   4   0    0.27    0.87
   5   4   0   -0.33    1.08
   5   4   0    0.65    1.26
   5   4   0    0.35    1.41
   5   4   0   -0.38    1.25
   5   4   0    0.29    0.61
   5   4   0   -0.46    0.87
   5   4   0   -0.33    0.90
   5   4   0    0.53    0.77
   5   4   1   25.54    2.51
   5   4   1   38.11    2.80
   5   4   1   31.60    2.65
   5   4   1   36.38    3.99
   5   4   1   37.24    4.24
   5   4   1   34.20    4.01
   5   4   1   36.95    3.91
   5   4   1   31.69    3.94
   5   4   1   31.25    2.58
   5   4   2    3.37    1.39
   5   4   2    3.31    1.43
   5   4   2    1.48    1.02
   5   4   2    0.17    0.54
   5   4   2    1.45    0.73
   5   4   2    1.29    0.66
   5   4   3   -0.34    0.52
   5   4   3    0.17    0.55
   5   4   3    0.61    0.84
   5   4   3   -0.27    0.75
   5   4   3   -0.57    0.89
   5   4   3   -0.07    0.43
   5   4   3    0.29    0.73
   5   4   3    1.48    1.15
   5   4   4   10.71    1.09
   5   4   4   12.62    1.21
   5   4   4   11.42    1.31
   5   4   4   10.69    2.19
   5   4   4   10.79    2.09
   5   4   4   11.98    1.17
   5   4   4   10.14    2.03
   5   4   4   10.28    2.00
   5   4   4    9.57    2.09
   5   4   5   33.20    2.25
   5   4   5   31.23    2.32
   5   4   5   34.63    3.59
   5   4   5   35.39    2.27
   5   4   5   36.09    3.99
   5   4   5   26.66    3.66
   5   4   5   36.01    3.66
   5   4   5   34.17    2.35
   5   4   5   30.32    2.36
   5   4   6    0.21    0.43
   5   4   6    0.89    0.49
   5   4   6   -0.40    0.64
   5   4   6    0.51    0.32
   5   4   6   -0.26    0.87
   5   4   6   -0.20    0.68
   5   4   6    0.20    0.58
   5   4   6    0.49    0.68
   5   4   6    0.33    0.39
   5   4   7    7.18    1.62
   5   4   7    8.94    1.11
   5   4   7    9.12    1.03
   5   4   7   11.10    1.40
   5   4   8    2.59    0.82
   5   4   8    3.25    0.59
   5   4   8    3.20    1.48
   5   4   8    3.54    0.74
   5   4   8    2.02    0.60
   5   4   8    4.09    0.95
   5   4   9   49.45    3.87
   5   4   9   56.82    3.79
   5   4   9   50.32    4.02
   5   4   9   53.17    5.59
   5   4   9   51.49    3.39
   5   4   9   53.98    3.43
   5   4  10    0.22    0.69
   5   4  10    0.97    0.65
   5   4  10    1.04    1.24
   5   4  10    1.43    0.89
   5   4  10    1.16    0.57
   5   4  10    0.70    0.42
   5   4  11   22.06    1.65
   5   4  11   20.85    1.54
   5   4  12    7.17    0.68
   5   4  12    4.98    0.87
   5   5  -5    0.56    0.38
   5   5  -5    0.06    0.45
   5   5  -4   22.93    3.14
   5   5  -4   20.59    3.17
   5   5  -4   26.76    2.30
   5   5  -4   29.15    2.17
   5   5  -3   15.19    2.72
   5   5  -3   14.99    2.96
   5   5  -3   15.16    1.83
   5   5  -3   15.80    1.63
   5   5  -2   37.87    4.60
   5   5  -2   36.06    3.98
   5   5  -2   34.04    4.62
   5   5  -2   36.90    2.94
   5   5  -2   37.18    3.18
   5   5  -1   34.20    3.69
   5   5  -1   30.03    3.71
   5   5  -1   29.16    2.12
   5   5  -1   25.70    3.34
   5   5  -1   36.65    3.98
   5   5  -1   29.70    4.12
   5   5  -1   35.80    3.92
   5   5  -1   29.81    4.36
   5   5  -1   36.40    2.78
   5   5  -1   36.83    3.01
   5   5   0   24.48    2.50
   5   5   0   32.49    2.61
   5   5   0   27.40    2.47
   5   5   0   24.92    3.19
   5   5   0   30.58    4.11
   5   5   0   27.54    3.26
   5   5   0   30.21    4.31
   5   5   0   25.65    3.23
   5   5   0   21.32    3.27
   5   5   0   24.09    3.01
   5   5   0   24.42    3.42
   5   5   0   24.64    2.35
   5   5   1    0.10    0.65
   5   5   1   -0.36    1.31
   5   5   1    0.31    0.86
   5   5   1    0.12    0.73
   5   5   1   -0.11    0.69
   5   5   1   -0.34    0.75
   5   5   1    0.11    0.37
   5   5   1   -0.71    1.27
   5   5   1   -0.24    0.74
   5   5   1    0.28    0.82
   5   5   1    0.21    0.66
   5   5   1    0.31    0.97
   5   5   1   -0.28    0.72
   5   5   2   61.13    4.88
   5   5   2   57.48    5.56
   5   5   2   67.15    4.36
   5   5   2   55.17    4.23
   5   5   2   57.92    3.84
   5   5   2   63.11    5.78
   5   5   2   50.40    5.60
   5   5   2   68.15    5.20
   5   5   2   69.26    5.94
   5   5   2   59.45    4.18
   5   5   2   67.01    6.10
   5   5   3   49.01    4.88
   5   5   3   43.77    3.36
   5   5   3   53.31    3.34
   5   5   3   35.38    3.28
   5   5   3   43.12    3.05
   5   5   3   47.07    4.81
   5   5   3   50.17    4.90
   5   5   3   45.86    3.90
   5   5   3   50.46    4.98
   5   5   3   47.51    3.17
   5   5   3   47.94    4.88
   5   5   4   81.63    4.84
   5   5   4   71.03    5.07
   5   5   4   80.31    4.98
   5   5   4   80.82    4.87
   5   5   4   76.77    6.58
   5   5   4   83.55    6.85
   5   5   4   79.97    6.56
   5   5   4   77.21    6.53
   5   5   4   71.97    4.80
   5   5   5    2.04    0.58
   5   5   5    1.31    0.58
   5   5   5    0.29    0.86
   5   5   5    1.34    0.49
   5   5   5    1.19    0.63
   5   5   5    0.71    0.54
   5   5   5    2.25    1.22
   5   5   5    1.25    0.90
   5   5   5    0.53    0.96
   5   5   5    1.14    0.48
   5   5   6   21.07    1.68
   5   5   6   25.43    1.92
   5   5   6   22.75    1.84
   5   5   6   22.89    2.87
   5   5   6   21.59    2.77
   5   5   6   21.13    1.63
   5   5   6   18.44    2.57
   5   5   6   23.64    3.13
   5   5   7   20.04    1.76
   5   5   7   24.19    1.91
   5   5   7   19.52    2.07
   5   5   7   25.27    3.06
   5   5   8    8.16    1.11
   5   5   8    6.86    0.95
   5   5   8    5.39    0.85
   5   5   8    5.35    1.80
   5   5   8    5.75    1.17
   5   5   9   18.92    2.04
   5   5   9   20.25    1.88
   5   5   9   20.61    1.66
   5   5   9   21.88    1.81
   5   5   9   16.21    2.99
   5   5   9   21.42    2.25
   5   5   9   20.31    1.58
   5   5  10    9.65    1.20
   5   5  10    9.31    1.33
   5   5  10    8.49    1.39
   5   5  10    7.47    1.85
   5   5  11    9.94    1.30
   5   5  11   11.86    1.10
   5   5  11   10.00    1.34
   5   5  12   46.33    2.79
   5   6  -4    1.32    0.50
   5   6  -4    1.13    0.43
   5   6  -4    0.30    0.46
   5   6  -3    2.92    0.69
   5   6  -3    4.20    0.91
   5   6  -3    6.25    0.97
   5   6  -3    4.69    0.86
   5   6  -2   98.83    6.04
   5   6  -2   84.16    5.46
   5   6  -2   87.85    6.15
   5   6  -2   80.97    7.82
   5   6  -1    3.41    1.32
   5   6  -1    2.80    1.62
   5   6  -1    4.43    0.90
   5   6  -1    5.28    1.69
   5   6  -1    4.59    1.07
   5   6  -1    3.85    1.00
   5   6  -1    2.89    0.98
   5   6   0   44.73    3.65
   5   6   0   60.29    3.79
   5   6   0   52.26    3.71
   5   6   0   37.89    4.33
   5   6   0   39.27    4.44
   5   6   0   52.87    4.73
   5   6   0   41.21    2.95
   5   6   0   46.04    4.40
   5   6   0   56.87    5.56
   5   6   0   49.52    3.53
   5   6   0   40.17    4.19
   5   6   0   47.90    4.74
   5   6   1   36.43    3.43
   5   6   1   50.11    3.54
   5   6   1   47.18    3.54
   5   6   1   41.12    4.43
   5   6   1   48.99    4.84
   5   6   1   40.34    4.17
   5   6   1   43.62    4.50
   5   6   1   43.98    2.95
   5   6   1   48.32    3.45
   5   6   1   50.23    5.19
   5   6   1   37.86    3.92
   5   6   1   43.60    4.69
   5   6   2  135.07   10.56
   5   6   2  154.96    9.13
   5   6   2  144.50    9.12
   5   6   2  135.81   10.59
   5   6   2  136.62   10.58
   5   6   2  126.83    9.72
   5   6   2  143.54   11.09
   5   6   2  150.31   10.73
   5   6   2  166.94    8.84
   5   6   2  168.75   11.36
   5   6   2  142.58    8.52
   5   6   3   81.30    6.75
   5   6   3   72.91    4.69
   5   6   3   78.53    6.71
   5   6   3   77.62    4.81
   5   6   3   80.02    6.80
   5   6   3   74.40    5.11
   5   6   3   82.04    4.97
   5   6   3   69.71    5.14
   5   6   4   32.86    2.24
   5   6   4   29.63    2.58
   5   6   4   33.72    2.43
   5   6   4   32.99    3.77
   5   6   4   29.65    3.63
   5   6   4   29.36    2.25
   5   6   4   30.14    3.68
   5   6   4   25.30    3.45
   5   6   4   31.66    2.30
   5   6   5   27.01    1.86
   5   6   5   25.15    1.85
   5   6   5   29.99    3.56
   5   6   5   21.41    1.67
   5   6   5   22.49    1.84
   5   6   5   18.83    1.96
   5   6   5   23.76    3.00
   5   6   5   20.44    2.86
   5   6   5   21.25    1.71
   5   6   5   15.36    2.53
   5   6   5   20.16    1.70
   5   6   6   38.13    2.68
   5   6   6   41.36    4.14
   5   6   6   41.76    3.44
   5   6   6   39.70    2.82
   5   6   6   41.50    2.84
   5   6   6   49.57    2.99
   5   6   6   39.91    4.33
   5   6   6   37.43    2.73
   5   6   6   36.08    3.94
   5   6   7   44.76    3.49
   5   6   7   46.24    2.88
   5   6   7   51.82    3.22
   5   6   7   39.19    2.90
   5   6   7   43.07    4.39
   5   6   8    1.23    0.62
   5   6   8    2.03    0.45
   5   6   8    2.03    1.13
   5   6   8    1.66    0.81
   5   6   8    2.51    0.69
   5   6   8    1.90    0.59
   5   6   9   38.25    4.46
   5   6   9   44.29    3.63
   5   6   9   53.98    3.37
   5   6   9   59.25    3.50
   5   6   9   47.83    3.41
   5   6  10    0.78    0.83
   5   6  10   -0.19    0.60
   5   6  10    0.37    0.32
   5   6  10    0.23    0.48
   5   6  10    0.06    0.47
   5   6  11    0.87    0.62
   5   6  11    0.15    0.29
   5   6  12    7.71    0.59
   5   7  -3   74.72    4.03
   5   7  -3   60.60    3.60
   5   7  -2   43.14    3.29
   5   7  -2   48.05    3.21
   5   7  -2   49.97    3.30
   5   7  -1    3.66    1.31
   5   7  -1    2.50    0.68
   5   7  -1    3.90    1.30
   5   7  -1    1.41    0.75
   5   7  -1    2.61    0.44
   5   7  -1    3.27    0.80
   5   7   0   35.73    2.81
   5   7   0   31.31    3.92
   5   7   0   35.40    2.69
   5   7   0   27.80    2.72
   5   7   0   30.83    2.24
   5   7   0   35.00    2.22
   5   7   1    3.05    0.61
   5   7   1    3.79    0.68
   5   7   1    4.42    1.41
   5   7   1    4.85    0.99
   5   7   1    3.26    1.37
   5   7   1    2.59    0.54
   5   7   2    0.58    0.46
   5   7   2    0.19    0.36
   5   7   2   -0.29    0.90
   5   7   2    0.34    0.66
   5   7   2    0.83    0.51
   5   7   2    0.17    0.45
   5   7   2    0.32    0.82
   5   7   3    4.40    0.68
   5   7   3    5.00    1.55
   5   7   3    4.84    0.76
   5   7   3    4.64    0.65
   5   7   3    4.74    1.03
   5   7   3    5.38    0.84
   5   7   3    4.54    1.12
   5   7   3    4.45    1.52
   5   7   3    5.30    0.74
   5   7   3    4.82    1.44
   5   7   3    3.61    1.28
   5   7   3    6.01    1.62
   5   7   3    4.44    0.71
   5   7   4   -0.30    1.34
   5   7   4    0.18    0.40
   5   7   4   -0.04    0.30
   5   7   4   -0.12    0.43
   5   7   4    0.47    0.34
   5   7   4    0.13    0.84
   5   7   4   -0.27    0.42
   5   7   4   -0.28    0.87
   5   7   4    0.18    0.43
   5   7   4    0.28    0.71
   5   7   4   -0.27    0.79
   5   7   5   21.35    2.81
   5   7   5   17.25    1.51
   5   7   5   16.28    2.02
   5   7   5   19.84    1.54
   5   7   5   18.74    2.65
   5   7   5   16.01    2.70
   5   7   5   16.31    1.53
   5   7   5   17.63    1.55
   5   7   6    8.95    1.50
   5   7   6    8.07    0.97
   5   7   6    6.40    0.87
   5   7   6    7.26    0.85
   5   7   6    8.73    1.52
   5   7   7    9.82    0.97
   5   7   7    9.74    1.09
   5   7   7   11.97    1.21
   5   7   7    9.93    1.02
   5   7   7   10.63    1.16
   5   7   7   10.35    1.60
   5   7   8   68.55    4.01
   5   7   8   59.97    3.70
   5   7   8   55.16    3.83
   5   7   9    3.13    0.72
   5   7   9    3.75    0.68
   5   7  10    9.87    1.35
   5   7  10    9.61    1.28
   5   7  10   12.24    0.99
   5   7  11    0.36    0.50
   5   7  11   -0.12    0.30
   5   7  11   -0.13    0.48
   5   7  12    1.34    0.22
   5   8  -2   -0.01    0.13
   5   8  -1    6.05    0.58
   5   8  -1    6.36    0.79
   5   8  -1    5.33    0.77
   5   8   0   24.16    1.90
   5   8   0   25.77    1.70
   5   8   0   22.00    1.90
   5   8   0   21.09    1.51
   5   8   0   21.21    1.47
   5   8   0   23.59    1.59
   5   8   1    0.50    0.31
   5   8   1    0.05    0.36
   5   8   1    0.16    0.53
   5   8   1   -0.17    0.50
   5   8   1    0.53    0.36
   5   8   2   14.33    1.79
   5   8   2   21.47    1.51
   5   8   2   20.54    1.50
   5   8   2   20.61    1.80
   5   8   2   16.98    1.77
   5   8   2   15.67    1.46
   5   8   3    1.44    0.45
   5   8   3    1.11    0.46
   5   8   3    2.36    0.74
   5   8   3    0.89    0.75
   5   8   3    1.13    0.45
   5   8   4   64.06    4.33
   5   8   4   56.98    3.92
   5   8   4   58.37    4.53
   5   8   4   68.61    4.07
   5   8   4   72.37    4.03
   5   8   5    1.44    0.48
   5   8   5    1.57    0.38
   5   8   5    2.02    0.54
   5   8   5    0.37    0.83
   5   8   6    3.16    0.98
   5   8   6    2.30    0.51
   5   8   6    2.11    0.54
   5   8   6    1.28    0.73
   5   8   6    1.35    0.49
   5   8   7   -0.12    0.72
   5   8   7    0.28    0.35
   5   8   7   -0.06    0.42
   5   8   7    0.04    0.32
   5   8   7   -0.09    0.59
   5   8   8    2.57    0.74
   5   8   8    2.52    0.45
   5   8   9   -0.03    0.26
   5   8   9   -0.08    0.53
   5   8  10    1.61    0.35
   5   8  10    0.94    0.27
   5   8  10    0.37    0.46
   5   8  10    1.11    0.55
   5   9   0   13.32    0.93
   5   9   1    6.41    0.78
   5   9   1    7.02    0.59
   5   9   1    7.93    0.65
   5   9   2   69.56    3.65
   5   9   2   60.20    3.59
   5   9   3    0.31    0.32
   5   9   3    0.45    0.32
   5   9   3    0.39    0.29
   5   9   4   14.43    1.19
   5   9   4   17.33    1.27
   5   9   4   12.72    1.51
   5   9   4   14.61    1.14
   5   9   5   44.19    2.54
   5   9   5   40.59    2.90
   5   9   6   79.58    5.94
   5   9   6  102.54    5.66
   5   9   6   90.69    5.85
   5   9   6  100.24    5.62
   5   9   6   97.67    5.57
   5   9   7   16.13    1.23
   5   9   7   15.54    1.46
   5   9   7   17.24    1.26
   5   9   8    2.25    0.59
   5   9   8    3.18    0.46
   5   9   9   28.50    1.74
   5   9   9   22.77    1.97
   5  10   2    2.73    0.29
   5  10   3    0.15    0.18
   5  10   3    0.17    0.16
   5  10   4    0.54    0.25
   5  10   5   -0.03    0.25
   5  10   6   12.08    0.90
   5  10   6   12.05    0.92
   5  10   7    8.29    0.66
   5  10   7   10.12    0.73
   6  -8   0    5.55    0.66
   6  -8   1    3.06    0.39
   6  -7  -4   25.08    1.79
   6  -7  -3    0.88    0.43
   6  -7  -3    0.92    0.42
   6  -7  -2   12.45    1.13
   6  -7  -2   12.74    1.22
   6  -7  -2   14.48    1.24
   6  -7  -2   13.64    1.27
   6  -7  -1    2.61    0.55
   6  -7  -1    3.80    0.67
   6  -7  -1    3.35    0.60
   6  -7  -1    2.85    0.63
   6  -7   0    6.30    0.78
   6  -7   0    7.26    0.89
   6  -7   0    8.15    0.89
   6  -7   0    6.15    0.83
   6  -7   1    0.33    0.36
   6  -7   1   -0.05    0.40
   6  -7   2   23.01    1.73
   6  -7   2   19.62    1.56
   6  -7   3   45.07    2.83
   6  -6  -5    0.92    0.44
   6  -6  -4   31.76    2.33
   6  -6  -4   35.09    2.43
   6  -6  -3    1.37    0.56
   6  -6  -3    1.48    0.50
   6  -6  -3    1.21    0.57
   6  -6  -2   31.23    2.25
   6  -6  -2   29.61    2.14
   6  -6  -2   25.71    2.00
   6  -6  -2   29.65    2.24
   6  -6  -1    0.27    0.45
   6  -6  -1    0.61    0.48
   6  -6  -1    0.82    0.49
   6  -6  -1    0.64    0.55
   6  -6  -1    0.91    0.55
   6  -6   0    5.97    0.84
   6  -6   0    5.41    0.80
   6  -6   0    5.33    0.88
   6  -6   0    6.58    0.91
   6  -6   0    5.93    0.93
   6  -6   1   79.30    4.85
   6  -6   1   78.94    4.92
   6  -6   1   79.70    4.88
   6  -6   1   86.23    4.99
   6  -6   2    9.49    1.07
   6  -6   2    8.55    1.89
   6  -6   2   11.61    1.14
   6  -6   2    9.15    1.01
   6  -6   3   64.03    4.15
   6  -6   3   59.97    3.86
   6  -6   4   -0.06    0.47
   6  -6   5    4.36    0.57
   6  -6   5    7.51    0.71
   6  -5  -5   71.08    4.46
   6  -5  -4    6.35    0.83
   6  -5  -3   10.51    1.14
   6  -5  -3    9.14    1.04
   6  -5  -3   10.37    2.04
   6  -5  -3   11.42    2.40
   6  -5  -2    1.33    0.55
   6  -5  -2    0.68    0.56
   6  -5  -2    0.74    1.89
   6  -5  -2   -0.75    1.74
   6  -5  -2    1.86    1.14
   6  -5  -1    6.41    1.71
   6  -5  -1    9.78    2.31
   6  -5  -1    8.40    3.39
   6  -5  -1    5.39    2.68
   6  -5  -1    7.92    1.04
   6  -5  -1    8.58    1.02
   6  -5  -1    6.98    0.88
   6  -5   0   13.32    2.41
   6  -5   0   12.60    2.55
   6  -5   0   15.46    4.13
   6  -5   0   11.88    3.72
   6  -5   0   15.93    1.48
   6  -5   0   18.38    1.53
   6  -5   0   15.09    1.38
   6  -5   1  114.38    8.71
   6  -5   1  112.77    8.65
   6  -5   1   94.71   10.68
   6  -5   1  102.52   10.99
   6  -5   1  113.62    6.75
   6  -5   1  121.94    6.84
   6  -5   1  126.22    6.87
   6  -5   2   14.12    1.30
   6  -5   2   10.40    2.20
   6  -5   2   14.28    1.39
   6  -5   2   11.98    1.27
   6  -5   2   12.63    1.28
   6  -5   3    3.89    0.67
   6  -5   3    3.94    0.66
   6  -5   3    4.49    1.83
   6  -5   3    4.04    0.72
   6  -5   3    3.51    0.67
   6  -5   4    1.01    0.79
   6  -5   4    0.79    0.46
   6  -5   4    0.21    0.37
   6  -5   5    9.28    0.94
   6  -5   5   10.32    1.15
   6  -5   6    0.84    0.43
   6  -5   6    1.38    0.56
   6  -5   7    1.97    0.33
   6  -4  -4  216.20   14.94
   6  -4  -3   21.80    3.33
   6  -4  -3   20.75    2.85
   6  -4  -3   10.79    3.54
   6  -4  -3    9.42    3.48
   6  -4  -2  467.32   24.34
   6  -4  -2  408.93   25.75
   6  -4  -2  458.50   26.59
   6  -4  -2  327.54   29.47
   6  -4  -2  338.10   29.56
   6  -4  -2  326.33   29.27
   6  -4  -2  472.73   27.72
   6  -4  -1  315.39   17.67
   6  -4  -1  265.35   23.30
   6  -4  -1  256.65   23.03
   6  -4  -1  347.74   20.57
   6  -4  -1  323.63   19.91
   6  -4  -1  250.98   23.23
   6  -4  -1  354.92   21.07
   6  -4   0   19.50    1.62
   6  -4   0   18.11    1.66
   6  -4   0    8.76    3.55
   6  -4   0   17.69    4.75
   6  -4   0   20.32    3.01
   6  -4   0   17.45    2.91
   6  -4   0   10.12    3.84
   6  -4   0   23.53    3.43
   6  -4   1   10.16    1.17
   6  -4   1   10.42    1.21
   6  -4   1    6.02    2.98
   6  -4   1   15.20    4.36
   6  -4   1   11.30    2.25
   6  -4   1   11.34    2.27
   6  -4   1   14.42    4.20
   6  -4   1   15.93    3.06
   6  -4   2   -0.07    0.51
   6  -4   2   -0.22    1.45
   6  -4   2   -1.37    2.01
   6  -4   2    0.69    1.76
   6  -4   2    0.21    0.49
   6  -4   2    0.28    0.47
   6  -4   2   -0.25    0.70
   6  -4   2   -0.74    1.71
   6  -4   2    0.69    0.94
   6  -4   3   24.73    3.47
   6  -4   3   31.12    2.27
   6  -4   3   29.29    2.16
   6  -4   3   30.13    2.23
   6  -4   3   31.19    2.26
   6  -4   3   28.79    2.18
   6  -4   3   31.47    3.71
   6  -4   3   26.52    4.79
   6  -4   3   20.12    4.36
   6  -4   4    4.69    0.67
   6  -4   4    3.62    0.61
   6  -4   4    5.29    0.76
   6  -4   4    4.94    1.14
   6  -4   4    4.81    0.74
   6  -4   5    9.57    1.69
   6  -4   5   18.14    1.47
   6  -4   6   45.47    4.29
   6  -4   6   47.41    2.94
   6  -4   7  184.48   12.46
   6  -4   7  185.69   12.08
   6  -4   8  169.80    9.53
   6  -3  -4   57.44    5.30
   6  -3  -3   16.99    2.32
   6  -3  -3   24.15    2.99
   6  -3  -3   25.79    3.59
   6  -3  -3    2.05    1.99
   6  -3  -3    8.25    3.10
   6  -3  -2   36.14    3.90
   6  -3  -2   45.12    4.52
   6  -3  -2   26.22    5.55
   6  -3  -2   42.73    2.71
   6  -3  -2   29.67    5.85
   6  -3  -2   26.90    5.51
   6  -3  -1  329.42   28.41
   6  -3  -1  345.12   28.62
   6  -3  -1  408.98   23.01
   6  -3  -1  416.15   24.86
   6  -3  -1  483.51   25.78
   6  -3  -1  345.94   28.81
   6  -3  -1  438.63   23.10
   6  -3  -1  304.47   28.24
   6  -3   0    4.72    2.95
   6  -3   0    3.17    2.61
   6  -3   0    2.85    0.60
   6  -3   0    4.79    1.44
   6  -3   0    4.50    1.61
   6  -3   0    3.24    2.53
   6  -3   0    4.63    0.72
   6  -3   0    0.77    1.79
   6  -3   1  300.94   24.06
   6  -3   1  301.13   24.05
   6  -3   1  309.88   18.25
   6  -3   1  299.50   19.88
   6  -3   1  373.44   20.76
   6  -3   1  298.32   24.20
   6  -3   1  328.93   18.30
   6  -3   1  353.19   18.44
   6  -3   1  304.85   23.37
   6  -3   2  258.64   14.91
   6  -3   2  263.30   15.05
   6  -3   2  245.39   16.24
   6  -3   2  261.91   14.94
   6  -3   2  274.26   15.03
   6  -3   2  268.69   20.81
   6  -3   2  277.79   20.90
   6  -3   2  290.42   21.06
   6  -3   2  272.10   16.79
   6  -3   3   82.90    4.99
   6  -3   3   78.00    4.99
   6  -3   3   82.98    9.32
   6  -3   3   71.18    6.49
   6  -3   3   85.21    9.30
   6  -3   3   75.91    8.75
   6  -3   4   -0.53    0.95
   6  -3   4   -0.13    0.49
   6  -3   4    0.20    0.34
   6  -3   4    0.27    0.48
   6  -3   4    0.59    0.46
   6  -3   4   -0.28    0.78
   6  -3   4    0.57    1.45
   6  -3   4    1.16    1.90
   6  -3   4    0.62    1.69
   6  -3   5    1.37    0.41
   6  -3   5    1.00    1.47
   6  -3   5   -0.51    1.58
   6  -3   5    0.43    0.42
   6  -3   5    0.44    0.75
   6  -3   5    0.75    0.96
   6  -3   6   77.09    4.58
   6  -3   6   78.75    4.87
   6  -3   6   71.40    6.10
   6  -3   7   94.41    6.39
   6  -3   7   78.04    5.74
   6  -3   8   42.79    2.89
   6  -3   8   50.43    3.05
   6  -3   9   60.11    3.42
   6  -2  -4   34.36    5.41
   6  -2  -4   32.92    5.34
   6  -2  -3   20.94    2.75
   6  -2  -3   12.37    3.02
   6  -2  -2   12.41    4.08
   6  -2  -2    8.56    2.80
   6  -2  -2   16.26    2.39
   6  -2  -2   11.53    3.64
   6  -2  -2    9.68    3.07
   6  -2  -1   46.33    4.10
   6  -2  -1   28.12    5.86
   6  -2  -1   31.90    5.69
   6  -2  -1   22.39    4.87
   6  -2  -1   32.17    5.63
   6  -2   0   21.61    1.65
   6  -2   0   24.65    2.93
   6  -2   0   12.67    4.01
   6  -2   0   12.72    3.83
   6  -2   0   13.97    3.99
   6  -2   0   18.31    4.40
   6  -2   1  485.98   36.34
   6  -2   1  458.77   35.97
   6  -2   1  562.29   31.13
   6  -2   1  590.45   31.21
   6  -2   1  498.29   36.51
   6  -2   1  565.04   32.89
   6  -2   1  600.98   33.40
   6  -2   1  474.66   36.19
   6  -2   2  115.70    7.16
   6  -2   2   93.41   10.87
   6  -2   2  104.78   11.19
   6  -2   2  111.07    8.52
   6  -2   2  128.42    9.11
   6  -2   2  129.94    7.25
   6  -2   2  133.35    7.32
   6  -2   2   84.11   10.55
   6  -2   3   27.36    2.22
   6  -2   3   30.51    2.16
   6  -2   3   31.22    5.05
   6  -2   3   34.68    5.49
   6  -2   3   32.53    3.26
   6  -2   3   27.12    3.37
   6  -2   3   29.15    5.25
   6  -2   3   28.42    2.16
   6  -2   3   29.06    2.20
   6  -2   4   38.10    2.61
   6  -2   4   42.66    2.75
   6  -2   4   34.42    5.34
   6  -2   4   36.01    5.50
   6  -2   4   35.76    3.93
   6  -2   4   38.23    5.75
   6  -2   5   51.98    3.24
   6  -2   5   56.68    3.39
   6  -2   5   46.93    6.31
   6  -2   5   47.67    3.78
   6  -2   5   43.58    4.45
   6  -2   5   43.33    6.02
   6  -2   5   42.79    5.96
   6  -2   6   59.68    6.72
   6  -2   6   63.19    6.83
   6  -2   6   62.48    4.23
   6  -2   6   49.59    4.43
   6  -2   7   21.41    2.79
   6  -2   7   22.96    1.97
   6  -2   7   17.70    2.28
   6  -2   7   15.28    1.78
   6  -2   7   22.30    1.77
   6  -2   8    6.60    0.94
   6  -2   8    3.77    0.75
   6  -2   8    6.04    0.83
   6  -2   9   10.21    0.96
   6  -2   9    8.03    0.70
   6  -2  10    1.11    0.24
   6  -1  -5    0.36    0.99
   6  -1  -4  163.04   12.70
   6  -1  -4  146.92   12.40
   6  -1  -3    1.02    1.59
   6  -1  -3   -0.52    1.78
   6  -1  -2    5.31    2.74
   6  -1  -2    3.79    1.98
   6  -1  -1   24.90    4.45
   6  -1   0   67.49    7.86
   6  -1   0   58.07    7.42
   6  -1   0   72.90    4.32
   6  -1   0   65.49    7.50
   6  -1   0   44.62    6.86
   6  -1   0   75.75    4.40
   6  -1   0   66.37    8.82
   6  -1   1    0.55    1.51
   6  -1   1    0.55    1.52
   6  -1   1    2.15    0.49
   6  -1   1    1.62    0.99
   6  -1   1    0.71    1.94
   6  -1   1    1.10    1.52
   6  -1   2    0.35    0.46
   6  -1   2    0.68    0.55
   6  -1   2    0.74    0.39
   6  -1   2    1.09    1.50
   6  -1   2    0.98    1.60
   6  -1   2    0.99    1.62
   6  -1   2    1.08    1.68
   6  -1   2    0.54    1.60
   6  -1   3   89.07    8.69
   6  -1   3  111.97    7.78
   6  -1   3  122.08    8.06
   6  -1   3  110.79    6.23
   6  -1   3   95.21    9.55
   6  -1   3   91.44    9.41
   6  -1   3  104.14    6.15
   6  -1   3   58.18    8.79
   6  -1   3   77.26    8.41
   6  -1   3  105.65    9.87
   6  -1   4  192.29   13.36
   6  -1   4  228.36   13.79
   6  -1   4  211.83   12.03
   6  -1   4  214.97   12.08
   6  -1   4  211.35   15.99
   6  -1   4  201.55   15.75
   6  -1   4  237.20   12.13
   6  -1   4  198.76   12.01
   6  -1   4  202.75   11.98
   6  -1   4  209.82   15.98
   6  -1   4  231.30   14.23
   6  -1   4  157.48   15.55
   6  -1   4  199.93   12.46
   6  -1   5   93.43    7.54
   6  -1   5  101.42    6.36
   6  -1   5  115.52   10.02
   6  -1   5  101.26    9.60
   6  -1   5  113.98    6.50
   6  -1   5  101.62    6.19
   6  -1   5  115.18    6.38
   6  -1   5  107.76    9.90
   6  -1   5  112.59    8.51
   6  -1   5  104.68    6.78
   6  -1   6   44.21    3.01
   6  -1   6   41.47    3.29
   6  -1   6   46.78    4.95
   6  -1   6   42.14    5.57
   6  -1   6   46.77    5.70
   6  -1   6   40.28    5.38
   6  -1   6   39.41    3.98
   6  -1   6   43.54    3.14
   6  -1   6   44.52    2.92
   6  -1   7    3.78    0.94
   6  -1   7    3.85    1.68
   6  -1   7    2.98    0.88
   6  -1   7    3.63    0.82
   6  -1   7    3.05    1.58
   6  -1   7    5.29    1.95
   6  -1   8   48.67    3.77
   6  -1   8   68.46    4.04
   6  -1   9    7.72    0.95
   6  -1   9    9.54    1.06
   6  -1  10    0.40    0.29
   6  -1  10    0.32    0.35
   6  -1  11    7.05    0.53
   6   0  -4  128.80   10.54
   6   0  -4  136.85   10.99
   6   0  -4  138.49   11.03
   6   0  -3    2.35    1.62
   6   0  -3    3.33    1.85
   6   0  -2   41.74    5.82
   6   0  -2   39.50    5.15
   6   0  -2   56.56    4.75
   6   0  -2   48.28    6.17
   6   0  -2   52.67    7.40
   6   0  -1   -0.50    1.38
   6   0  -1   -1.37    1.16
   6   0  -1    1.04    0.42
   6   0  -1    0.22    0.65
   6   0  -1    0.51    1.29
   6   0  -1    2.14    2.09
   6   0   0   95.65   10.78
   6   0   0   95.55   10.75
   6   0   0   98.12   10.59
   6   0   0  137.65    7.73
   6   0   0  140.06    9.29
   6   0   0  138.60    7.71
   6   0   1   54.78    7.38
   6   0   1   84.42    4.75
   6   0   1   63.10    7.64
   6   0   1   76.03    4.64
   6   0   1   69.83    7.74
   6   0   1   78.01    4.67
   6   0   1   61.53    6.90
   6   0   1   71.08    7.13
   6   0   2   25.51    1.92
   6   0   2   24.75    1.91
   6   0   2   27.22    1.94
   6   0   2   23.54    3.86
   6   0   2   21.58    3.94
   6   0   2   20.91    4.04
   6   0   2   32.59    4.54
   6   0   2   27.30    4.25
   6   0   3   71.95    7.36
   6   0   3   91.11    5.09
   6   0   3   77.16    4.89
   6   0   3   62.21    7.13
   6   0   3   76.76    7.56
   6   0   3   86.67    5.01
   6   0   3   69.93    7.34
   6   0   3   79.89    7.66
   6   0   3   85.78    6.44
   6   0   3   59.78    7.86
   6   0   4   44.87    5.23
   6   0   4   43.39    5.01
   6   0   4   57.20    4.87
   6   0   4   73.42    5.29
   6   0   4   49.70    5.97
   6   0   4   46.95    5.83
   6   0   4   75.67    3.91
   6   0   4   50.84    5.38
   6   0   4   52.71    6.10
   6   0   4   53.30    3.94
   6   0   4   42.82    6.30
   6   0   5    3.04    1.09
   6   0   5    3.49    0.70
   6   0   5    3.01    1.69
   6   0   5    3.92    1.77
   6   0   5    5.66    0.88
   6   0   5    3.52    0.67
   6   0   5    3.95    1.83
   6   0   5    2.37    1.71
   6   0   5    4.24    0.91
   6   0   6    2.95    1.01
   6   0   6    2.99    0.64
   6   0   6    3.91    1.81
   6   0   6    2.20    1.52
   6   0   6    4.15    0.80
   6   0   6    3.09    0.56
   6   0   6    2.71    1.49
   6   0   6    2.60    1.32
   6   0   6    3.14    0.85
   6   0   6    1.68    0.73
   6   0   7    9.71    2.15
   6   0   7    9.01    2.40
   6   0   7    7.80    2.25
   6   0   7    8.85    1.19
   6   0   7    7.83    1.14
   6   0   8    9.20    1.28
   6   0   8   10.53    2.45
   6   0   8   14.29    2.81
   6   0   8   11.04    2.41
   6   0   8   10.11    1.31
   6   0   8   12.58    1.38
   6   0   9   28.82    2.22
   6   0   9   27.41    2.23
   6   0   9   33.44    2.40
   6   0  10    1.43    0.47
   6   0  10    1.25    0.47
   6   0  11    0.18    0.23
   6   1  -4    1.56    0.94
   6   1  -4    2.28    1.22
   6   1  -3   19.10    3.31
   6   1  -3   13.02    2.86
   6   1  -3   23.06    2.97
   6   1  -3   16.68    3.11
   6   1  -2    3.07    1.20
   6   1  -2    1.83    1.43
   6   1  -2    2.78    1.60
   6   1  -2    3.09    1.20
   6   1  -2    2.60    1.36
   6   1  -2    1.27    1.39
   6   1  -1    0.27    0.80
   6   1  -1    2.35    1.62
   6   1  -1    0.39    0.99
   6   1  -1    1.36    0.88
   6   1  -1   -0.48    1.11
   6   1   0  433.59   34.00
   6   1   0  603.42   31.27
   6   1   0  620.25   33.42
   6   1   0  485.99   32.45
   6   1   1    3.47    0.61
   6   1   1    4.67    1.89
   6   1   1    0.94    1.30
   6   1   1    3.31    1.85
   6   1   1    3.59    0.65
   6   1   1    3.67    1.28
   6   1   2   79.98    4.70
   6   1   2   65.17    7.17
   6   1   2   53.38    6.93
   6   1   2   57.54    6.92
   6   1   2   76.09    4.67
   6   1   2   76.48    6.16
   6   1   2   79.41    4.76
   6   1   3   22.39    1.77
   6   1   3   20.40    3.47
   6   1   3   24.48    1.83
   6   1   3   24.87    1.82
   6   1   3   23.77    4.23
   6   1   3   20.54    3.46
   6   1   3   27.44    3.01
   6   1   3   19.92    3.23
   6   1   3   18.98    3.02
   6   1   3   24.58    3.42
   6   1   4    0.28    0.71
   6   1   4   -0.20    0.82
   6   1   4    0.45    0.59
   6   1   4    0.60    0.46
   6   1   4    1.91    1.57
   6   1   4    0.34    0.79
   6   1   4    1.03    1.07
   6   1   4    0.66    0.59
   6   1   4    1.20    1.08
   6   1   4    0.33    1.14
   6   1   4   -0.30    0.89
   6   1   5  107.05    8.19
   6   1   5  154.83    8.18
   6   1   5  164.24    8.17
   6   1   5  143.83   10.80
   6   1   5  134.99   10.61
   6   1   5  146.23    8.11
   6   1   5  120.65    7.92
   6   1   5  134.21    9.26
   6   1   5  144.65    9.30
   6   1   5  136.17   10.67
   6   1   5  142.92    8.28
   6   1   5  133.28   11.08
   6   1   6   59.01    3.70
   6   1   6   64.31    6.21
   6   1   6   63.15    6.12
   6   1   6   60.22    6.01
   6   1   6   62.99    3.73
   6   1   6   54.88    3.43
   6   1   6   41.70    3.55
   6   1   6   44.57    5.28
   6   1   6   47.23    3.42
   6   1   6   49.54    3.37
   6   1   7    4.81    1.87
   6   1   7    2.83    1.41
   6   1   7    4.10    0.89
   6   1   7    4.36    0.89
   6   1   7    3.79    1.57
   6   1   7    4.66    0.70
   6   1   7    3.08    0.82
   6   1   7    4.30    0.63
   6   1   8   72.02    7.22
   6   1   8   82.00    5.42
   6   1   8   89.39    5.44
   6   1   9   12.19    2.71
   6   1   9   14.33    1.60
   6   1   9   14.69    1.41
   6   1   9   19.11    1.62
   6   1   9   14.99    1.49
   6   1  10  338.10   19.16
   6   1  10  332.45   19.10
   6   1  10  361.69   19.21
   6   1  11    1.00    0.33
   6   2  -5    1.15    0.83
   6   2  -4   86.25    7.16
   6   2  -4   97.41    7.26
   6   2  -4   95.85    7.44
   6   2  -3   63.88    5.71
   6   2  -3   62.38    5.47
   6   2  -3   55.83    5.90
   6   2  -3   50.32    5.75
   6   2  -2   54.61    6.24
   6   2  -2   65.90    5.60
   6   2  -2   64.95    5.84
   6   2  -2   68.60    6.60
   6   2  -2   55.44    6.26
   6   2  -2   73.88    6.34
   6   2  -1    1.63    1.31
   6   2  -1    0.32    0.93
   6   2  -1    0.43    1.09
   6   2  -1    0.50    0.55
   6   2  -1    0.43    1.19
   6   2  -1   -0.27    0.85
   6   2  -1    0.40    1.19
   6   2  -1   -0.29    0.84
   6   2   0   62.57    6.82
   6   2   0   89.05    7.05
   6   2   0   63.86    7.12
   6   2   0   89.32    5.10
   6   2   0   72.87    7.48
   6   2   0   71.85    6.40
   6   2   0   67.09    7.13
   6   2   1  111.41    6.91
   6   2   1  121.15    6.98
   6   2   1  126.71    9.04
   6   2   1  105.40    8.39
   6   2   1  110.73    9.59
   6   2   1  107.86    9.55
   6   2   2    1.70    1.53
   6   2   2    0.79    0.51
   6   2   2    0.46    0.44
   6   2   2   -0.40    1.10
   6   2   2    0.38    1.41
   6   2   2    0.25    0.43
   6   2   2    2.16    1.16
   6   2   2    1.21    1.19
   6   2   3    9.29    1.10
   6   2   3   10.65    1.14
   6   2   3   11.19    1.12
   6   2   3   10.64    2.40
   6   2   3   10.27    2.38
   6   2   3    8.20    2.20
   6   2   3   11.61    1.16
   6   2   4   62.16    4.53
   6   2   4   78.74    5.81
   6   2   4   69.22    6.20
   6   2   4   73.48    4.51
   6   2   4   65.89    4.48
   6   2   4   75.42    4.50
   6   2   4   62.42    6.13
   6   2   4   61.01    6.86
   6   2   4   68.83    6.30
   6   2   5   71.83    7.34
   6   2   5   64.72    5.05
   6   2   5   81.36    6.05
   6   2   5   87.24    6.07
   6   2   5   90.90    5.10
   6   2   5   96.01    5.06
   6   2   5   74.66    4.94
   6   2   5   79.51    6.94
   6   2   5   89.05    7.13
   6   2   5   79.33    5.20
   6   2   5   86.88    5.03
   6   2   5   79.80    6.44
   6   2   5   67.31    6.17
   6   2   6    0.67    0.99
   6   2   6    1.14    0.47
   6   2   6    1.80    0.57
   6   2   6    1.38    0.53
   6   2   6    2.42    0.73
   6   2   6    2.36    0.61
   6   2   6    2.40    0.70
   6   2   6    3.05    1.36
   6   2   6    2.73    1.42
   6   2   7   29.50    2.37
   6   2   7   29.04    2.29
   6   2   7   22.61    1.86
   6   2   7   31.27    2.25
   6   2   7   25.70    2.20
   6   2   7   27.63    2.03
   6   2   8   10.12    1.27
   6   2   8    8.78    1.26
   6   2   8    8.81    2.21
   6   2   8   10.02    1.16
   6   2   8    7.41    0.84
   6   2   8    8.23    1.11
   6   2   9  116.79    7.29
   6   2   9  114.67    9.32
   6   2   9  117.89    7.21
   6   2   9  116.27    6.94
   6   2  10    0.05    0.33
   6   2  10   -0.24    0.43
   6   2  11    0.18    0.31
   6   2  11    0.19    0.32
   6   3  -5   47.32    3.12
   6   3  -4   50.56    4.81
   6   3  -3  527.68   31.96
   6   3  -3  509.99   29.71
   6   3  -2  233.68   14.16
   6   3  -2  268.34   16.90
   6   3  -2  251.07   15.69
   6   3  -2  248.08   16.45
   6   3  -2  266.25   16.80
   6   3  -2  259.53   16.01
   6   3  -2  242.06   16.59
   6   3  -1  153.03   11.53
   6   3  -1  148.51   10.58
   6   3  -1  168.59    9.18
   6   3  -1  144.32    8.90
   6   3  -1  151.15   11.49
   6   3  -1  139.93   10.41
   6   3  -1  152.41   11.12
   6   3  -1  150.15   11.43
   6   3  -1  155.47   11.32
   6   3  -1  138.21    8.85
   6   3   0   10.72    2.52
   6   3   0    8.69    1.87
   6   3   0    9.51    1.28
   6   3   0    9.80    1.17
   6   3   0    8.30    2.23
   6   3   0    8.43    2.05
   6   3   0   11.75    2.48
   6   3   0    9.63    2.11
   6   3   0    7.72    1.08
   6   3   0   10.35    2.40
   6   3   1   36.43    2.63
   6   3   1   29.62    2.41
   6   3   1   29.39    4.05
   6   3   1   24.40    3.55
   6   3   1   31.24    3.83
   6   3   1   38.09    4.34
   6   3   2    0.38    1.19
   6   3   2    0.08    0.57
   6   3   2    0.08    0.44
   6   3   2    0.61    0.54
   6   3   2    0.76    1.37
   6   3   2    0.36    0.51
   6   3   2    0.62    0.85
   6   3   2   -0.36    1.12
   6   3   2    0.38    0.96
   6   3   3   29.53    4.00
   6   3   3   35.82    2.56
   6   3   3   23.85    2.32
   6   3   3   28.79    3.98
   6   3   3   39.53    4.34
   6   3   3   38.76    2.49
   6   3   3   36.23    3.97
   6   3   4    0.32    0.43
   6   3   4   -0.60    1.07
   6   3   4   -0.14    0.53
   6   3   4    0.27    0.85
   6   3   4    0.31    0.40
   6   3   4   -0.39    1.21
   6   3   4    0.30    0.88
   6   3   5  176.59   12.35
   6   3   5  201.10   10.74
   6   3   5  206.55   11.10
   6   3   5  171.41   10.71
   6   3   5  202.01   10.71
   6   3   5  170.56   11.60
   6   3   5  164.28   10.73
   6   3   5  201.52   13.64
   6   3   5  179.43   12.42
   6   3   6  354.71   18.96
   6   3   6  374.76   19.47
   6   3   6  381.40   21.87
   6   3   6  309.93   19.13
   6   3   6  321.47   18.95
   6   3   7  425.72   25.28
   6   3   7  468.50   25.32
   6   3   7  411.47   25.01
   6   3   7  448.17   24.90
   6   3   7  490.90   25.23
   6   3   8  179.87   11.55
   6   3   8  194.15   11.10
   6   3   8  188.17   11.32
   6   3   8  206.79   11.46
   6   3   8  202.68   11.61
   6   3   9    5.66    1.06
   6   3   9    5.57    0.98
   6   3   9    5.41    0.72
   6   3   9    4.49    1.04
   6   3   9    6.72    0.93
   6   3  10   41.19    4.76
   6   3  10   45.06    2.87
   6   3  10   43.02    3.22
   6   3  11   21.27    1.53
   6   3  11   22.62    1.63
   6   4  -4    6.99    0.86
   6   4  -4    8.75    1.71
   6   4  -4   10.38    1.09
   6   4  -3    6.81    1.04
   6   4  -3    4.81    0.82
   6   4  -3    4.00    0.78
   6   4  -3    4.77    1.51
   6   4  -3    5.13    1.50
   6   4  -2   50.06    3.42
   6   4  -2   42.42    3.19
   6   4  -2   42.72    4.79
   6   4  -2   54.22    4.73
   6   4  -2   34.54    4.39
   6   4  -2   55.04    5.29
   6   4  -2   39.93    3.14
   6   4  -1   59.14    5.73
   6   4  -1   44.34    3.56
   6   4  -1   54.09    5.46
   6   4  -1   49.30    4.75
   6   4  -1   58.12    3.89
   6   4  -1   48.17    3.65
   6   4  -1   49.63    5.33
   6   4  -1   62.07    5.27
   6   4  -1   52.12    4.85
   6   4  -1   56.78    5.53
   6   4   0    0.50    0.74
   6   4   0   -0.36    1.17
   6   4   0   -0.28    0.71
   6   4   0   -0.28    0.72
   6   4   0    0.36    1.17
   6   4   0   -0.11    0.61
   6   4   0   -0.20    0.59
   6   4   0   -0.35    0.90
   6   4   0    0.47    0.53
   6   4   0    0.37    1.21
   6   4   1   40.48    4.18
   6   4   1   42.56    4.94
   6   4   1   45.80    3.38
   6   4   1   44.63    3.30
   6   4   1   38.96    4.60
   6   4   1   46.45    5.08
   6   4   1   44.66    4.69
   6   4   1   45.92    5.07
   6   4   1   40.82    4.74
   6   4   2    1.90    1.14
   6   4   2    1.25    0.72
   6   4   2    1.98    0.70
   6   4   2    2.29    0.70
   6   4   2    1.70    1.12
   6   4   2    2.69    1.36
   6   4   2    1.30    1.17
   6   4   3   52.46    5.53
   6   4   3   58.96    5.67
   6   4   3   51.24    5.45
   6   4   3   49.88    3.65
   6   4   3   51.50    3.56
   6   4   3   52.31    5.41
   6   4   3   51.04    5.22
   6   4   4   42.33    2.97
   6   4   4   39.15    3.10
   6   4   4   43.09    3.04
   6   4   4   43.93    4.94
   6   4   4   42.31    4.61
   6   4   4   42.34    4.86
   6   4   4   44.33    3.02
   6   4   4   45.64    4.70
   6   4   5    4.87    0.73
   6   4   5    5.02    0.80
   6   4   5    3.14    1.24
   6   4   5    1.29    1.14
   6   4   5    4.70    0.70
   6   4   5    5.36    0.86
   6   4   5    4.06    1.63
   6   4   5    5.49    1.48
   6   4   5    4.58    0.79
   6   4   5    3.77    0.73
   6   4   6  123.62    9.31
   6   4   6  116.27    7.05
   6   4   6  143.13    7.79
   6   4   6  117.24    9.20
   6   4   6  132.22    7.37
   6   4   6  122.20    7.32
   6   4   6  115.30    7.06
   6   4   6  117.31    7.19
   6   4   7  101.79    6.40
   6   4   7  104.89    6.33
   6   4   7   97.72    7.87
   6   4   7  109.89    6.74
   6   4   8   89.58    5.94
   6   4   8   86.24    5.48
   6   4   8   96.04    5.68
   6   4   8   89.43    6.01
   6   4   8   95.03    8.01
   6   4   9    0.51    0.67
   6   4   9    0.94    0.66
   6   4   9    1.29    0.57
   6   4   9    0.30    0.38
   6   4   9    2.04    1.32
   6   4   9    1.08    0.78
   6   4   9    0.59    0.36
   6   4  10    4.61    0.97
   6   4  10    4.51    0.88
   6   4  10    3.68    1.41
   6   4  10    4.87    0.61
   6   4  10    4.14    0.96
   6   4  10    5.78    0.82
   6   4  11    0.40    0.53
   6   4  11    0.35    0.41
   6   4  12    3.33    0.40
   6   5  -4    4.47    0.66
   6   5  -3   20.34    1.71
   6   5  -3   19.32    1.62
   6   5  -3   16.85    1.54
   6   5  -3   22.07    2.73
   6   5  -2   42.29    2.89
   6   5  -2   34.50    2.69
   6   5  -2   43.30    4.39
   6   5  -2   32.66    2.63
   6   5  -2   31.19    3.84
   6   5  -1   27.15    1.97
   6   5  -1   28.51    3.79
   6   5  -1   40.09    3.88
   6   5  -1   27.04    2.38
   6   5  -1   36.94    4.24
   6   5  -1   38.31    2.71
   6   5  -1   31.90    2.54
   6   5   0   16.93    2.93
   6   5   0   22.23    2.81
   6   5   0   19.17    1.89
   6   5   0   15.22    1.72
   6   5   0   15.24    1.68
   6   5   1   17.11    2.38
   6   5   1   16.61    2.79
   6   5   1   18.47    1.86
   6   5   1   16.04    1.78
   6   5   1   16.25    1.40
   6   5   1   13.84    2.73
   6   5   1   14.02    2.42
   6   5   1   14.94    2.51
   6   5   1   18.23    2.90
   6   5   1   17.86    2.72
   6   5   2   34.60    2.88
   6   5   2   35.04    2.91
   6   5   2   35.58    2.54
   6   5   2   30.73    4.21
   6   5   2   41.32    4.48
   6   5   2   43.10    2.82
   6   5   3  231.94   13.92
   6   5   3  225.43   14.23
   6   5   3  223.95   14.25
   6   5   3  251.82   16.53
   6   5   3  244.35   16.44
   6   5   3  255.57   16.45
   6   5   3  278.80   16.72
   6   5   3  264.83   14.11
   6   5   3  263.11   14.13
   6   5   3  247.84   16.53
   6   5   4   45.09    3.09
   6   5   4   42.21    3.29
   6   5   4   42.32    3.07
   6   5   4   57.50    5.32
   6   5   4   42.55    4.61
   6   5   4   47.92    4.84
   6   5   4   45.18    3.08
   6   5   5  361.51   18.57
   6   5   5  315.32   18.61
   6   5   5  382.28   21.47
   6   5   5  318.10   18.55
   6   5   5  334.76   18.74
   6   5   5  330.60   18.42
   6   5   5  321.37   18.60
   6   5   5  357.79   21.15
   6   5   5  308.44   20.43
   6   5   5  295.93   20.34
   6   5   6    6.42    0.83
   6   5   6    4.44    1.01
   6   5   6    4.44    1.52
   6   5   6    2.53    1.06
   6   5   6    3.29    0.66
   6   5   6    2.99    1.06
   6   5   6    3.18    1.15
   6   5   6    3.48    0.59
   6   5   7    7.28    0.95
   6   5   7    5.88    0.89
   6   5   7    8.39    1.28
   6   5   8   99.41    6.38
   6   5   8  107.04    6.62
   6   5   8  131.91    6.82
   6   5   8  125.63    6.96
   6   5   8  107.05    7.02
   6   5   9    0.90    0.72
   6   5   9    1.32    0.56
   6   5   9    0.42    0.40
   6   5   9    0.08    0.57
   6   5   9    0.22    0.74
   6   5   9   -0.61    0.90
   6   5  10   14.38    1.42
   6   5  10   14.73    1.61
   6   5  10   15.59    1.33
   6   5  10   14.49    1.56
   6   5  11    0.80    0.57
   6   6  -3   23.00    1.51
   6   6  -3   16.76    1.14
   6   6  -2    1.98    0.32
   6   6  -2    1.33    0.49
   6   6  -2    1.88    0.56
   6   6  -2    1.09    0.48
   6   6  -1    8.47    1.85
   6   6  -1   11.11    1.27
   6   6  -1    7.56    1.10
   6   6  -1   11.24    1.21
   6   6  -1   10.51    2.09
   6   6   0    0.93    0.91
   6   6   0    1.27    0.38
   6   6   0    1.70    0.73
   6   6   0    1.43    0.74
   6   6   0    2.24    1.24
   6   6   1   16.19    2.41
   6   6   1   17.32    2.92
   6   6   1   19.46    1.61
   6   6   1   22.69    2.06
   6   6   1   19.65    2.00
   6   6   1   26.12    1.93
   6   6   1   24.75    3.38
   6   6   2   23.70    1.87
   6   6   2   26.90    2.12
   6   6   2   26.01    2.34
   6   6   2   28.50    2.25
   6   6   2   25.51    2.35
   6   6   3   15.06    1.34
   6   6   3   12.53    1.59
   6   6   3   16.37    1.60
   6   6   3   18.36    2.83
   6   6   3   12.61    2.46
   6   6   3   12.29    2.44
   6   6   3   13.69    2.46
   6   6   3   15.89    1.47
   6   6   3   14.97    2.61
   6   6   3   16.33    1.45
   6   6   4  543.58   29.79
   6   6   4  554.08   29.73
   6   6   4  514.59   30.09
   6   6   4  560.55   29.93
   6   6   4  554.79   32.14
   6   6   4  433.32   31.49
   6   6   4  549.15   29.75
   6   6   4  460.65   31.61
   6   6   5    1.68    0.57
   6   6   5    1.72    0.50
   6   6   5    1.39    0.54
   6   6   5    1.03    0.47
   6   6   6    0.78    0.77
   6   6   6    1.60    0.52
   6   6   6    2.06    0.57
   6   6   6    0.83    0.38
   6   6   6    1.68    0.53
   6   6   7    6.75    1.25
   6   6   7    8.75    0.93
   6   6   7   10.28    1.06
   6   6   7    8.45    0.83
   6   6   8   18.97    1.68
   6   6   8   16.50    1.82
   6   6   8   16.13    1.35
   6   6   8   17.90    1.54
   6   6   8   23.08    1.67
   6   6   8   20.36    2.89
   6   6   9   12.89    1.47
   6   6   9    8.56    1.41
   6   6   9   11.77    1.23
   6   6   9   13.09    1.16
   6   6   9   15.29    1.26
   6   6   9    6.66    1.71
   6   6  10    0.17    0.59
   6   6  10   -0.16    0.43
   6   6  10    0.38    0.42
   6   6  10    0.32    0.52
   6   6  11    1.21    0.52
   6   7  -2    1.59    0.25
   6   7  -1   38.16    2.35
   6   7  -1   39.80    2.70
   6   7  -1   43.87    2.63
   6   7  -1   36.05    2.65
   6   7   0   11.21    1.24
   6   7   0   12.36    1.17
   6   7   0   10.44    1.23
   6   7   0   11.72    0.97
   6   7   0   14.53    1.15
   6   7   0   10.51    0.88
   6   7   1   12.07    1.33
   6   7   1   13.74    1.26
   6   7   1   10.67    1.31
   6   7   1   12.63    1.14
   6   7   1   11.54    2.08
   6   7   1   10.83    1.04
   6   7   1    9.71    0.95
   6   7   2    0.79    0.60
   6   7   2    1.04    0.66
   6   7   2    1.22    0.54
   6   7   2    1.14    0.44
   6   7   2    1.04    0.89
   6   7   2    1.70    0.46
   6   7   2    0.96    0.44
   6   7   2    0.88    0.41
   6   7   3    8.23    0.87
   6   7   3   10.76    1.12
   6   7   3    9.55    1.24
   6   7   3    8.20    0.94
   6   7   3    9.88    0.98
   6   7   3    7.53    0.91
   6   7   3    7.09    0.83
   6   7   4    0.34    0.34
   6   7   4    0.27    0.57
   6   7   4    1.23    0.52
   6   7   4    0.47    0.36
   6   7   4    0.58    0.41
   6   7   4    0.76    0.47
   6   7   4    0.50    0.44
   6   7   5  107.05    6.18
   6   7   5  103.32    6.20
   6   7   5  100.93    6.23
   6   7   6    0.05    0.33
   6   7   6   -0.05    0.39
   6   7   6    0.34    0.45
   6   7   6   -0.10    0.66
   6   7   7   -0.32    0.55
   6   7   7    0.38    0.31
   6   7   7    0.37    0.38
   6   7   7    0.77    0.63
   6   7   7    0.55    0.44
   6   7   8   15.42    1.63
   6   7   8   17.15    1.44
   6   7   9   66.24    4.78
   6   7   9   64.85    4.87
   6   7  10    0.57    0.55
   6   7  10    0.32    0.27
   6   7  10    0.50    0.25
   6   7  10    0.45    0.47
   6   8  -1   17.39    1.08
   6   8   0   50.86    2.92
   6   8   0   48.10    2.85
   6   8   1   38.64    2.53
   6   8   1   38.01    2.40
   6   8   1   44.07    2.49
   6   8   2    9.04    0.89
   6   8   2   10.25    0.87
   6   8   2    9.20    0.86
   6   8   3    4.70    0.62
   6   8   3    3.27    0.58
   6   8   3    5.22    0.65
   6   8   4   -0.09    0.36
   6   8   4    0.34    0.35
   6   8   4    0.99    0.35
   6   8   5    1.46    0.42
   6   8   5    1.52    0.44
   6   8   6    0.26    0.34
   6   8   6    0.31    0.32
   6   8   6    0.50    0.38
   6   8   7   22.68    1.63
   6   8   7   21.06    1.55
   6   8   8   36.89    2.41
   6   8   9   53.91    3.60
   6   8  10    3.73    0.41
   6   9   1    3.10    0.31
   6   9   2    4.31    0.44
   6   9   2    4.36    0.42
   6   9   2    3.98    0.37
   6   9   3   53.84    3.24
   6   9   3   56.71    3.28
   6   9   3   56.01    3.27
   6   9   4   30.09    2.34
   6   9   4   36.21    2.16
   6   9   4   34.68    2.16
   6   9   5    1.19    0.32
   6   9   5    0.71    0.20
   6   9   5    0.61    0.30
   6   9   5    0.22    0.46
   6   9   6  101.05    5.66
   6   9   6   91.67    5.87
   6   9   6   93.66    5.59
   6   9   6  109.52    5.71
   6   9   7   16.81    1.12
   6   9   7   15.16    1.11
   6   9   8    8.84    0.70
   6   9   9    3.28    0.34
   7  -7   0    0.53    0.33
   7  -7   1    0.82    0.29
   7  -6  -3    4.16    0.59
   7  -6  -2   -0.09    0.31
   7  -6  -2    0.09    0.33
   7  -6  -1    2.05    0.49
   7  -6  -1    1.60    0.43
   7  -6  -1    1.48    0.45
   7  -6   0    0.65    0.38
   7  -6   0    1.09    0.45
   7  -6   0    1.09    0.42
   7  -6   0    1.15    0.42
   7  -6   1   18.36    1.33
   7  -6   1   16.15    1.33
   7  -6   1   14.94    1.27
   7  -6   2    0.48    0.36
   7  -6   2   -0.11    0.45
   7  -6   3    5.57    0.73
   7  -6   4    0.90    0.29
   7  -5  -4   12.41    1.09
   7  -5  -3    5.50    0.70
   7  -5  -2   36.69    2.47
   7  -5  -2   35.43    2.41
   7  -5  -1   23.73    1.81
   7  -5  -1   23.30    1.77
   7  -5   0    0.91    0.85
   7  -5   0    1.42    0.50
   7  -5   0    1.10    0.47
   7  -5   0    1.39    0.43
   7  -5   0    1.88    0.57
   7  -5   1    0.64    0.45
   7  -5   1   -0.23    1.05
   7  -5   1    0.42    0.44
   7  -5   1    0.47    0.43
   7  -5   1    0.11    0.41
   7  -5   1    0.35    0.40
   7  -5   2  202.21   11.08
   7  -5   2  188.19   11.03
   7  -5   2  205.02   11.10
   7  -5   2  183.50   10.98
   7  -5   3    2.13    0.48
   7  -5   3    2.74    0.74
   7  -5   3    1.94    0.47
   7  -5   4   -0.06    0.45
   7  -5   5    1.36    0.45
   7  -5   6   10.40    0.68
   7  -5   6    5.31    0.52
   7  -4  -4   -0.05    0.36
   7  -4  -3    0.95    0.46
   7  -4  -2   11.28    2.09
   7  -4  -2   14.01    1.32
   7  -4  -1   50.78    3.24
   7  -4  -1   45.17    4.61
   7  -4  -1   50.15    3.34
   7  -4   0    2.04    0.56
   7  -4   0    1.87    0.62
   7  -4   0    1.66    0.57
   7  -4   1   12.55    1.23
   7  -4   1   12.24    2.15
   7  -4   1   13.04    1.28
   7  -4   2   80.95    5.16
   7  -4   2   86.03    5.21
   7  -4   2   87.54    5.22
   7  -4   3    7.72    0.85
   7  -4   3    9.66    0.98
   7  -4   3    8.96    0.96
   7  -4   3    7.48    0.92
   7  -4   3   10.52    1.93
   7  -4   3    7.36    0.87
   7  -4   4   37.87    2.95
   7  -4   4   40.10    2.63
   7  -4   4   40.24    2.66
   7  -4   5   10.24    1.15
   7  -4   5    8.61    0.91
   7  -4   6    0.76    0.46
   7  -4   6    0.74    0.45
   7  -4   6    0.62    0.35
   7  -4   7   14.91    1.06
   7  -3  -3   33.01    3.81
   7  -3  -3   41.00    2.66
   7  -3  -2  183.86   12.36
   7  -3  -2  192.74   10.51
   7  -3  -1   83.91    6.78
   7  -3  -1   93.84    7.31
   7  -3  -1   83.09    5.31
   7  -3  -1   98.45    5.52
   7  -3   0   76.76    9.70
   7  -3   0   85.90   10.08
   7  -3   0  108.77    8.13
   7  -3   0  121.32    8.88
   7  -3   0  118.48    8.64
   7  -3   0  108.48    6.56
   7  -3   0  126.75    6.77
   7  -3   0  107.67    6.53
   7  -3   1   31.84    5.33
   7  -3   1   39.16    5.81
   7  -3   1   33.45    3.88
   7  -3   1   32.76    3.85
   7  -3   1   32.80    2.41
   7  -3   1   43.23    2.65
   7  -3   1   33.48    2.56
   7  -3   1   33.99    2.41
   7  -3   2   -1.19    1.96
   7  -3   2    1.21    1.66
   7  -3   2    0.24    0.71
   7  -3   2    0.45    0.47
   7  -3   2   -0.06    0.41
   7  -3   2    0.79    0.53
   7  -3   3   10.43    2.98
   7  -3   3   12.23    3.18
   7  -3   3   11.31    1.22
   7  -3   3   13.05    2.25
   7  -3   3   14.24    1.27
   7  -3   4   10.71    1.49
   7  -3   4   11.69    1.12
   7  -3   4   12.68    1.23
   7  -3   4   11.25    1.12
   7  -3   4   14.61    1.28
   7  -3   4   11.63    2.13
   7  -3   5    0.09    0.67
   7  -3   5    0.62    0.33
   7  -3   6   34.68    2.48
   7  -3   6   30.49    2.25
   7  -3   7   53.01    3.23
   7  -3   7   52.55    3.15
   7  -3   8    0.67    0.33
   7  -3   8    0.56    0.24
   7  -2  -4   67.77    5.70
   7  -2  -3    0.65    0.81
   7  -2  -2   -0.05    0.36
   7  -2  -2    0.23    0.69
   7  -2  -1   13.17    1.20
   7  -2  -1   15.89    1.33
   7  -2  -1    7.05    2.61
   7  -2  -1    5.81    2.51
   7  -2  -1   10.73    1.99
   7  -2   0   50.48    4.60
   7  -2   0   52.10    4.90
   7  -2   0   24.16    4.95
   7  -2   0   28.97    5.20
   7  -2   0   53.74    3.14
   7  -2   0   53.65    3.20
   7  -2   0   25.00    5.10
   7  -2   0   28.81    5.34
   7  -2   0   27.08    5.33
   7  -2   1   41.23    4.32
   7  -2   1   29.17    5.33
   7  -2   1   38.96    5.91
   7  -2   1   50.90    3.11
   7  -2   1   52.00    3.16
   7  -2   1   34.53    5.70
   7  -2   1   28.43    5.26
   7  -2   1   27.43    5.57
   7  -2   2   -0.24    0.83
   7  -2   2    0.57    0.93
   7  -2   2    1.16    1.59
   7  -2   2   -0.59    1.49
   7  -2   2   -0.18    0.41
   7  -2   2    0.27    0.52
   7  -2   2   -0.25    0.45
   7  -2   2   -0.51    1.31
   7  -2   2    0.59    1.49
   7  -2   2   -1.01    1.49
   7  -2   2   -0.69    1.60
   7  -2   3    6.77    0.95
   7  -2   3    7.52    0.93
   7  -2   3    5.54    2.33
   7  -2   3    9.54    2.88
   7  -2   3    7.34    1.00
   7  -2   3    6.08    0.85
   7  -2   3    6.25    2.46
   7  -2   3    8.93    1.90
   7  -2   3    3.37    2.35
   7  -2   4    0.06    0.47
   7  -2   4    0.06    0.41
   7  -2   4    0.84    0.53
   7  -2   4   -0.25    0.79
   7  -2   4    0.22    0.66
   7  -2   4    0.52    1.31
   7  -2   4    0.52    1.33
   7  -2   5   11.62    1.09
   7  -2   5   13.63    1.24
   7  -2   5   13.00    2.11
   7  -2   5   12.49    1.52
   7  -2   6    2.03    0.71
   7  -2   6    0.79    0.66
   7  -2   7   -0.07    0.54
   7  -2   7   -0.06    0.42
   7  -2   8    4.26    0.62
   7  -2   8    3.78    0.64
   7  -1  -4    3.48    1.14
   7  -1  -1    0.26    0.96
   7  -1  -1    2.49    1.72
   7  -1   0   94.89   11.23
   7  -1   0  151.71    8.27
   7  -1   0  169.52   10.53
   7  -1   0  104.50   11.54
   7  -1   0  117.41   11.98
   7  -1   1    4.78    2.44
   7  -1   1    8.56    1.00
   7  -1   1    7.39    2.61
   7  -1   1    9.10    1.87
   7  -1   1    9.80    1.07
   7  -1   1    7.39    0.83
   7  -1   2    8.79    1.05
   7  -1   2    3.94    1.89
   7  -1   2    7.49    2.46
   7  -1   2    6.87    0.91
   7  -1   2    9.33    2.01
   7  -1   2    6.68    2.48
   7  -1   2    4.68    2.19
   7  -1   3   56.40    4.99
   7  -1   3   56.07    5.07
   7  -1   3   47.07    6.02
   7  -1   3   50.90    6.20
   7  -1   3   53.03    3.44
   7  -1   3   53.96    3.49
   7  -1   3   46.76    6.00
   7  -1   3   47.25    3.71
   7  -1   3   47.49    6.93
   7  -1   4    1.00    0.93
   7  -1   4    1.02    0.53
   7  -1   4    0.48    1.12
   7  -1   4    0.98    1.35
   7  -1   4    0.91    0.46
   7  -1   4    1.31    0.55
   7  -1   4   -0.49    1.13
   7  -1   4    0.89    0.65
   7  -1   4    1.80    1.65
   7  -1   5   -0.46    1.17
   7  -1   5    0.94    1.37
   7  -1   5    0.53    0.45
   7  -1   5    0.05    0.35
   7  -1   5   -0.10    0.61
   7  -1   5   -0.28    0.83
   7  -1   5    0.23    0.78
   7  -1   5    0.27    0.48
   7  -1   6    6.64    0.79
   7  -1   6    5.92    1.04
   7  -1   6    5.82    1.68
   7  -1   6    3.97    0.92
   7  -1   6    6.51    0.87
   7  -1   7    0.62    0.59
   7  -1   7    0.73    0.61
   7  -1   8    2.67    0.66
   7  -1   8    1.76    0.62
   7  -1   9    1.11    0.45
   7  -1   9    0.65    0.37
   7  -1   9    0.81    0.40
   7  -1  10   12.13    0.84
   7   0  -3    0.37    0.95
   7   0  -2    0.43    1.25
   7   0  -1    9.50    2.70
   7   0  -1    8.29    2.47
   7   0  -1    9.11    2.78
   7   0  -1   15.71    1.25
   7   0   0   26.06    1.89
   7   0   0   16.85    3.83
   7   0   0   20.20    3.88
   7   0   0   21.45    4.19
   7   0   0   28.08    1.99
   7   0   1    1.09    0.45
   7   0   1    0.54    1.87
   7   0   1    1.81    1.07
   7   0   1   -0.54    1.57
   7   0   1    0.73    0.37
   7   0   1    0.54    1.86
   7   0   2    0.13    0.51
   7   0   2    1.28    0.45
   7   0   2    2.49    1.64
   7   0   2    0.50    1.39
   7   0   2    0.57    1.44
   7   0   3    0.43    1.26
   7   0   3    0.50    0.86
   7   0   3    0.80    1.25
   7   0   3    1.58    1.30
   7   0   3    0.40    0.93
   7   0   3    1.79    0.56
   7   0   3    1.44    0.62
   7   0   3    1.58    0.52
   7   0   3   -0.43    0.89
   7   0   3    0.60    1.76
   7   0   4    6.11    1.58
   7   0   4    5.56    1.48
   7   0   4    7.30    0.98
   7   0   4    7.32    0.94
   7   0   4    4.53    1.84
   7   0   4    2.50    1.47
   7   0   4    5.34    0.86
   7   0   4    6.67    0.88
   7   0   4    2.25    1.96
   7   0   4    6.38    1.01
   7   0   5    3.13    0.83
   7   0   5    0.87    0.85
   7   0   5    1.59    0.58
   7   0   5    1.66    1.23
   7   0   5    2.52    1.45
   7   0   5    2.38    0.66
   7   0   5    2.36    0.58
   7   0   5    1.78    0.42
   7   0   5    1.24    1.30
   7   0   5    1.82    1.05
   7   0   5    3.13    0.78
   7   0   5    2.92    1.68
   7   0   6   33.32    4.43
   7   0   6   31.36    4.35
   7   0   6   31.00    2.38
   7   0   6   34.27    2.20
   7   0   6   34.57    2.55
   7   0   6   28.56    3.74
   7   0   6   28.31    2.24
   7   0   6   26.88    2.49
   7   0   7    3.73    1.46
   7   0   7    3.96    0.80
   7   0   7    5.37    0.89
   7   0   7    3.65    0.86
   7   0   8    5.31    1.72
   7   0   8    8.11    1.02
   7   0   9    1.17    0.44
   7   0   9    0.38    0.47
   7   0   9    1.49    0.52
   7   0  10   18.14    1.22
   7   0  10   15.39    1.16
   7   1  -3   15.42    1.30
   7   1  -2   30.08    2.14
   7   1  -2   28.54    3.26
   7   1  -2   27.29    3.97
   7   1  -1    3.38    1.71
   7   1  -1    4.43    0.69
   7   1  -1    4.10    1.65
   7   1  -1    5.07    1.98
   7   1  -1    2.88    1.18
   7   1  -1    3.64    1.53
   7   1  -1    4.56    0.68
   7   1  -1    3.44    1.22
   7   1   0   25.05    3.98
   7   1   0   30.36    2.25
   7   1   0   34.01    3.61
   7   1   0   30.98    2.23
   7   1   1   92.37    8.89
   7   1   1   98.30    5.98
   7   1   1   98.98    6.03
   7   1   1   87.09    9.01
   7   1   1  109.49    6.12
   7   1   1   80.54    8.85
   7   1   1   88.98    8.97
   7   1   2   10.90    2.82
   7   1   2   13.53    1.25
   7   1   2   11.29    1.15
   7   1   2   11.67    3.09
   7   1   2   10.31    3.06
   7   1   2   10.52    1.14
   7   1   2   13.75    3.14
   7   1   3    1.90    0.56
   7   1   3    0.54    1.38
   7   1   3    1.27    0.44
   7   1   3    0.75    0.49
   7   1   3    0.42    1.22
   7   1   3    0.41    1.29
   7   1   3    1.54    1.32
   7   1   3    2.51    1.20
   7   1   4   30.98    2.24
   7   1   4   27.44    2.03
   7   1   4   19.96    4.20
   7   1   4   27.34    3.16
   7   1   4   17.68    3.05
   7   1   4   30.84    3.33
   7   1   4   26.37    2.29
   7   1   4   26.53    3.72
   7   1   4   22.10    3.41
   7   1   5  114.93    6.46
   7   1   5  112.54    6.38
   7   1   5  113.15    8.97
   7   1   5  112.39    8.89
   7   1   5  117.75    6.55
   7   1   5   88.81    6.16
   7   1   5  116.84    6.40
   7   1   5   88.17    6.43
   7   1   5  106.79    9.66
   7   1   5  105.02    7.62
   7   1   5  101.41    7.53
   7   1   6   12.77    2.53
   7   1   6   13.60    2.66
   7   1   6   10.80    1.14
   7   1   6   11.31    1.27
   7   1   6   11.90    1.20
   7   1   6   10.18    1.11
   7   1   6   11.45    2.43
   7   1   6   12.90    1.29
   7   1   6    8.54    1.27
   7   1   7    5.87    0.96
   7   1   7    5.80    0.79
   7   1   7    5.51    1.72
   7   1   7    7.79    0.82
   7   1   7    6.98    1.07
   7   1   7    6.95    0.96
   7   1   8    9.38    2.10
   7   1   8   11.31    1.27
   7   1   8   14.54    1.31
   7   1   8   10.21    1.25
   7   1   9   29.62    2.13
   7   1  10   74.33    4.31
   7   1  10   69.34    4.20
   7   1  11   16.59    1.05
   7   2  -4   80.88    4.80
   7   2  -3   29.13    2.06
   7   2  -3   25.38    3.03
   7   2  -2    6.26    0.81
   7   2  -2    4.65    1.43
   7   2  -2    5.34    1.62
   7   2  -1    8.87    1.04
   7   2  -1    6.72    1.83
   7   2  -1    8.17    1.01
   7   2  -1    9.51    2.24
   7   2   0    2.50    0.64
   7   2   0    3.44    1.79
   7   2   0    2.92    0.67
   7   2   0    1.74    1.05
   7   2   0    3.03    1.75
   7   2   0    1.51    0.95
   7   2   0    2.53    1.46
   7   2   1   34.55    4.82
   7   2   1   35.08    2.52
   7   2   1   27.84    4.22
   7   2   1   27.88    4.45
   7   2   1   35.51    2.51
   7   2   1   30.91    3.79
   7   2   1   30.76    4.45
   7   2   2    1.50    0.56
   7   2   2    0.44    1.28
   7   2   2    2.39    0.64
   7   2   2   -0.44    1.21
   7   2   2    0.43    1.28
   7   2   2    2.03    1.46
   7   2   2    1.92    0.57
   7   2   3   24.82    2.01
   7   2   3   24.41    3.75
   7   2   3   24.94    1.99
   7   2   3   23.89    3.71
   7   2   3   25.88    3.22
   7   2   3   22.59    3.51
   7   2   3   25.94    2.00
   7   2   4   46.36    3.72
   7   2   4   52.75    5.60
   7   2   4   69.67    3.96
   7   2   4   53.76    3.79
   7   2   4   56.58    5.77
   7   2   4   62.55    5.19
   7   2   4   58.35    5.60
   7   2   4   64.18    6.81
   7   2   4   78.19    4.09
   7   2   4   56.93    3.81
   7   2   5   16.99    1.68
   7   2   5   18.17    2.41
   7   2   5   21.01    1.73
   7   2   5   22.81    1.70
   7   2   5   17.82    1.59
   7   2   5   19.74    1.65
   7   2   5   22.84    3.68
   7   2   6   10.12    1.17
   7   2   6    7.47    0.91
   7   2   6    6.08    1.90
   7   2   6    8.20    1.08
   7   2   6    6.36    0.89
   7   2   6    7.24    0.87
   7   2   7   54.21    3.50
   7   2   7   44.00    3.07
   7   2   7   55.28    5.38
   7   2   7   46.48    3.38
   7   2   7   47.96    3.20
   7   2   7   54.42    3.32
   7   2   8    2.85    0.69
   7   2   8    1.79    0.79
   7   2   8    0.64    1.21
   7   2   9   -0.59    1.01
   7   2   9   -0.18    0.49
   7   2   9    0.33    0.30
   7   2   9    1.22    0.61
   7   2   9   -0.05    0.36
   7   2  10   38.57    2.42
   7   2  11    2.95    0.34
   7   2  11    4.32    0.46
   7   3  -4   -0.14    0.32
   7   3  -3   10.84    1.84
   7   3  -2   42.87    4.29
   7   3  -2   36.79    3.83
   7   3  -1    3.36    0.69
   7   3  -1    2.63    1.33
   7   3  -1    1.55    0.98
   7   3  -1    3.59    0.68
   7   3  -1    1.78    1.12
   7   3   0   31.71    2.61
   7   3   0   30.79    4.00
   7   3   0   44.39    5.03
   7   3   0   40.23    2.74
   7   3   0   36.59    2.69
   7   3   0   26.82    3.69
   7   3   0   49.52    5.12
   7   3   0   42.61    5.04
   7   3   1   15.25    2.71
   7   3   1   17.63    1.67
   7   3   1   20.98    1.78
   7   3   1   20.40    3.20
   7   3   1   19.87    1.73
   7   3   1   17.90    2.91
   7   3   1   21.09    3.40
   7   3   2    8.30    2.09
   7   3   2    6.20    0.93
   7   3   2    5.50    0.85
   7   3   2    4.30    0.82
   7   3   2    5.99    1.92
   7   3   2    5.04    0.83
   7   3   2    4.06    1.51
   7   3   2    3.12    1.54
   7   3   2    5.60    1.88
   7   3   2    2.01    1.18
   7   3   3   68.64    6.46
   7   3   3   73.63    4.50
   7   3   3   64.64    6.71
   7   3   3   66.16    4.43
   7   3   3   61.96    6.42
   7   3   3   70.45    4.45
   7   3   3   61.67    6.49
   7   3   4   16.86    2.40
   7   3   4   22.04    1.77
   7   3   4   20.47    1.69
   7   3   4   15.46    2.75
   7   3   4   18.33    3.29
   7   3   4   22.51    3.21
   7   3   4   17.61    1.61
   7   3   4   18.62    1.67
   7   3   5    0.43    0.50
   7   3   5   -0.06    0.39
   7   3   5    0.13    0.48
   7   3   5    0.25    0.50
   7   3   5    0.06    0.40
   7   3   5   -0.37    0.58
   7   3   5    0.13    0.46
   7   3   5    0.38    1.37
   7   3   6    9.53    1.06
   7   3   6    9.07    0.96
   7   3   6   12.30    1.24
   7   3   6   12.28    1.11
   7   3   6   12.39    1.37
   7   3   7    1.58    0.64
   7   3   7    2.80    0.65
   7   3   7    2.55    0.74
   7   3   7    2.23    0.73
   7   3   8   43.60    3.06
   7   3   8   38.43    3.02
   7   3   8   44.56    4.73
   7   3   8   39.75    2.73
   7   3   8   45.50    2.97
   7   3   9   26.35    1.97
   7   3   9   20.10    1.85
   7   3   9   30.08    3.56
   7   3   9   24.49    1.82
   7   3   9   20.33    1.53
   7   3  10    1.58    0.49
   7   3  10    1.11    0.51
   7   3  10    1.67    0.33
   7   3  11   38.14    2.37
   7   4  -3    7.04    0.76
   7   4  -2   56.46    3.57
   7   4  -2   56.34    5.06
   7   4  -2   53.93    3.58
   7   4  -1   15.76    1.41
   7   4  -1   18.36    2.68
   7   4  -1   10.91    2.09
   7   4  -1   14.53    1.44
   7   4   0   11.62    1.24
   7   4   0   16.36    2.69
   7   4   0    9.19    2.08
   7   4   0   14.04    2.22
   7   4   0   11.15    1.30
   7   4   0   11.62    1.31
   7   4   1   12.69    1.34
   7   4   1   13.16    2.48
   7   4   1   12.00    1.37
   7   4   1   12.86    1.38
   7   4   1   10.08    1.96
   7   4   2    2.32    0.74
   7   4   2    2.27    0.68
   7   4   2    6.11    1.87
   7   4   2    4.68    1.76
   7   4   2    4.64    1.51
   7   4   2    2.45    0.65
   7   4   2    0.65    1.08
   7   4   2    4.35    1.52
   7   4   3   15.38    2.78
   7   4   3   14.70    2.71
   7   4   3   14.69    2.73
   7   4   3   13.85    1.42
   7   4   3   13.56    1.49
   7   4   3   17.16    1.58
   7   4   4  167.65    8.96
   7   4   4  150.84    8.96
   7   4   4  146.44    9.00
   7   4   4  139.99   10.04
   7   4   4  151.47   11.06
   7   4   4  146.71   11.34
   7   4   4  153.88   11.58
   7   4   4  135.27   10.79
   7   4   5    2.68    0.60
   7   4   5    2.79    0.66
   7   4   5    4.63    0.94
   7   4   5    3.39    0.60
   7   4   5    3.30    0.64
   7   4   5    4.40    0.74
   7   4   6    5.62    0.74
   7   4   6    7.08    1.12
   7   4   6    7.17    0.87
   7   4   6    8.49    1.01
   7   4   6    5.13    0.73
   7   4   7   10.94    1.14
   7   4   7   11.65    1.15
   7   4   7   10.56    1.29
   7   4   7    8.80    1.26
   7   4   8    0.65    1.18
   7   4   8    0.86    0.53
   7   4   8    0.31    0.42
   7   4   8    0.31    0.51
   7   4   8    1.21    0.65
   7   4   9    5.55    1.62
   7   4   9    7.46    0.87
   7   4   9    5.55    0.97
   7   4  10   20.56    1.55
   7   4  11    0.29    0.28
   7   5  -2    1.00    0.35
   7   5  -2    0.92    0.37
   7   5  -2    0.14    0.33
   7   5  -1   30.15    2.41
   7   5  -1   34.81    2.43
   7   5  -1   37.54    2.42
   7   5  -1   34.36    3.68
   7   5   0   34.26    2.13
   7   5   0   37.30    2.43
   7   5   0   28.40    3.57
   7   5   0   24.92    3.33
   7   5   0   32.35    2.45
   7   5   0   33.90    2.43
   7   5   0   25.34    2.25
   7   5   1    3.96    1.46
   7   5   1    4.53    0.82
   7   5   1    3.76    0.57
   7   5   1    3.57    0.80
   7   5   2    2.58    0.78
   7   5   2    4.36    1.56
   7   5   2    5.56    0.90
   7   5   2    4.19    0.83
   7   5   2    3.92    0.66
   7   5   3  116.41    7.58
   7   5   3  127.87    7.52
   7   5   3  127.15    7.46
   7   5   3  124.22    7.35
   7   5   3  123.63    7.48
   7   5   4   20.04    1.83
   7   5   4   23.58    1.70
   7   5   4   19.73    1.74
   7   5   4   21.81    1.77
   7   5   4   21.41    1.80
   7   5   5   20.38    1.50
   7   5   5   18.29    1.58
   7   5   5   17.74    1.60
   7   5   6   27.33    2.09
   7   5   6   36.22    2.72
   7   5   6   35.13    2.25
   7   5   6   32.47    2.31
   7   5   7    3.36    0.87
   7   5   7    2.59    0.57
   7   5   7    3.32    0.67
   7   5   8    5.90    0.93
   7   5   8    4.51    0.91
   7   5   8    6.41    0.79
   7   5   8    4.18    0.69
   7   5   8    5.34    1.60
   7   5   9   33.43    2.48
   7   5   9   33.73    2.26
   7   5   9   28.62    2.51
   7   5  10    7.41    0.89
   7   5  10    6.09    0.88
   7   5  11    0.31    0.24
   7   6  -1   60.49    3.61
   7   6  -1   57.98    3.82
   7   6  -1   70.06    3.84
   7   6   0    0.20    0.33
   7   6   0    0.19    0.43
   7   6   0    0.05    0.23
   7   6   0    0.05    0.36
   7   6   1   19.07    1.53
   7   6   1   17.43    2.56
   7   6   1   16.29    1.60
   7   6   1   16.86    1.32
   7   6   1   19.84    1.52
   7   6   2   12.73    1.16
   7   6   2   12.15    1.15
   7   6   2    9.26    1.96
   7   6   2   10.08    1.23
   7   6   2    9.90    0.92
   7   6   2    9.79    0.99
   7   6   3   24.74    2.16
   7   6   3   28.33    2.01
   7   6   3   26.36    1.90
   7   6   3   26.27    2.02
   7   6   4    0.48    0.52
   7   6   4   -0.05    0.41
   7   6   4   -0.22    0.43
   7   6   4    0.30    0.37
   7   6   5    7.52    0.85
   7   6   5    8.23    0.87
   7   6   5    8.33    0.93
   7   6   5    7.84    0.98
   7   6   6    2.27    0.54
   7   6   6    2.31    0.46
   7   6   6    2.26    0.55
   7   6   6    2.34    0.76
   7   6   7    9.20    0.93
   7   6   7   10.98    1.06
   7   6   7   11.21    0.98
   7   6   7   11.27    1.23
   7   6   7    9.78    1.29
   7   6   8   39.57    2.68
   7   6   8   40.10    2.55
   7   6   8   43.42    2.53
   7   6   8   33.86    2.76
   7   6   9    2.24    0.53
   7   6   9    1.68    0.46
   7   6   9    2.00    0.45
   7   6   9    2.09    0.61
   7   6  10    0.40    0.31
   7   7  -1    0.08    0.11
   7   7   0   21.74    1.38
   7   7   1    8.35    0.82
   7   7   1    7.47    0.85
   7   7   1    7.63    0.65
   7   7   1    7.66    0.71
   7   7   2   25.86    1.76
   7   7   2   25.17    1.72
   7   7   2   23.63    1.67
   7   7   2   23.91    1.93
   7   7   2   25.59    1.84
   7   7   3   12.60    1.30
   7   7   3   15.50    1.25
   7   7   3   12.58    1.10
   7   7   3   12.16    1.09
   7   7   3   13.25    1.01
   7   7   4   43.83    2.76
   7   7   4   42.09    2.80
   7   7   4   43.46    2.88
   7   7   4   45.05    2.81
   7   7   5    0.35    0.35
   7   7   5    0.33    0.56
   7   7   5    0.08    0.30
   7   7   6    1.82    0.47
   7   7   6    1.43    0.36
   7   7   6    1.60    0.45
   7   7   6    0.64    0.56
   7   7   7    0.17    0.35
   7   7   7    0.56    0.31
   7   7   7   -0.32    0.45
   7   7   7   -0.45    0.57
   7   7   8    1.48    0.45
   7   7   8    0.93    0.53
   7   7   8    1.28    0.57
   7   7   9   -0.13    0.28
   7   7   9    0.11    0.36
   7   7  10    2.78    0.30
   7   8   1    1.05    0.17
   7   8   1    1.12    0.20
   7   8   2   41.35    2.26
   7   8   2   40.38    2.26
   7   8   3    3.61    0.45
   7   8   3    3.79    0.42
   7   8   3    3.39    0.44
   7   8   4    0.89    0.33
   7   8   5    0.86    0.31
   7   8   5    0.53    0.33
   7   8   5    1.46    0.51
   7   8   5    0.78    0.28
   7   8   6   12.22    0.92
   7   8   6   10.40    1.14
   7   8   6   12.29    0.98
   7   8   6   13.82    0.99
   7   8   7   21.52    1.37
   7   8   7   19.73    1.30
   7   8   8   -0.02    0.18
   7   9   5    0.55    0.16
   7   9   6    0.13    0.13
   8  -5  -1   -0.36    0.29
   8  -5  -1    0.21    0.25
   8  -5   0    0.30    0.34
   8  -5   1   14.57    1.19
   8  -5   2    0.04    0.32
   8  -5   3    1.16    0.33
   8  -5   3    2.67    0.41
   8  -5   4   18.15    1.44
   8  -5   4   32.83    1.55
   8  -4  -2    1.23    0.37
   8  -4  -2    1.80    0.41
   8  -4  -1   40.94    2.65
   8  -4  -1   41.68    2.65
   8  -4   0    5.30    0.62
   8  -4   0    5.09    0.66
   8  -4   0    5.89    0.69
   8  -4   1    4.37    0.61
   8  -4   1    3.43    0.53
   8  -4   1    2.84    0.66
   8  -4   1    4.50    0.60
   8  -4   2  126.43    6.86
   8  -4   2  125.81    6.85
   8  -4   2  116.28    6.83
   8  -4   2  101.37    6.92
   8  -4   3  103.40    6.15
   8  -4   4    0.70    0.38
   8  -4   4    0.31    0.39
   8  -4   5   10.12    0.80
   8  -4   5    6.53    0.72
   8  -3  -3    6.41    0.70
   8  -3  -2   30.06    1.99
   8  -3  -1  106.44    6.22
   8  -3  -1  106.72    6.30
   8  -3   0   49.37    4.49
   8  -3   0   53.90    3.27
   8  -3   0   48.49    3.28
   8  -3   1  365.23   22.38
   8  -3   1  401.98   20.84
   8  -3   1  385.97   20.86
   8  -3   1  400.30   20.88
   8  -3   2    5.06    0.90
   8  -3   2    5.95    1.51
   8  -3   2    6.97    0.81
   8  -3   2    7.03    0.82
   8  -3   3   51.49    3.14
   8  -3   3   54.68    3.21
   8  -3   3   49.54    3.15
   8  -3   4    4.50    0.77
   8  -3   4    4.74    0.58
   8  -3   5    5.65    0.78
   8  -3   5    4.75    0.75
   8  -3   5    6.37    0.69
   8  -3   6    3.76    0.54
   8  -3   6    2.69    0.53
   8  -3   7    7.68    0.64
   8  -2  -3    4.92    0.59
   8  -2  -2    0.15    0.33
   8  -2  -2    0.27    0.39
   8  -2  -1    0.19    0.61
   8  -2  -1   -0.22    0.83
   8  -2  -1   -0.13    0.37
   8  -2  -1   -0.31    0.44
   8  -2   0   17.50    2.45
   8  -2   0   27.91    3.08
   8  -2   0   22.78    1.69
   8  -2   0   26.11    1.82
   8  -2   0   20.70    1.63
   8  -2   1   92.79    7.49
   8  -2   1  112.40    6.37
   8  -2   1  114.65    6.45
   8  -2   1  102.06    6.30
   8  -2   2   80.35    5.77
   8  -2   2  108.22    7.59
   8  -2   2   97.28    5.71
   8  -2   2  105.75    5.82
   8  -2   2   93.22    5.66
   8  -2   2   99.91    5.83
   8  -2   3   26.09    2.19
   8  -2   3   29.27    2.06
   8  -2   3   30.23    2.13
   8  -2   3   23.34    3.06
   8  -2   3   30.61    2.14
   8  -2   4    0.44    0.53
   8  -2   4   -0.10    0.39
   8  -2   4    0.43    0.33
   8  -2   4    0.32    0.39
   8  -2   4    0.96    0.57
   8  -2   5    1.42    0.53
   8  -2   5    0.75    0.55
   8  -2   6   -0.26    0.44
   8  -2   6   -0.40    0.47
   8  -2   7    0.50    0.36
   8  -2   7   -0.08    0.33
   8  -2   7    0.15    0.30
   8  -2   8    4.79    0.48
   8  -1  -3   11.22    0.97
   8  -1  -2  107.73    5.94
   8  -1  -2   94.65    5.81
   8  -1  -1   42.90    2.82
   8  -1  -1   46.70    2.92
   8  -1  -1   37.22    3.86
   8  -1   0   -0.20    0.35
   8  -1   0    0.34    0.48
   8  -1   0    0.22    0.71
   8  -1   0    0.74    0.99
   8  -1   1    3.48    0.64
   8  -1   1    4.64    1.31
   8  -1   1    3.26    0.64
   8  -1   2   -0.17    0.41
   8  -1   2    0.55    0.41
   8  -1   2    0.25    0.83
   8  -1   2    1.12    0.51
   8  -1   2    0.59    0.44
   8  -1   3   36.13    2.33
   8  -1   3   36.95    2.27
   8  -1   3   36.03    3.71
   8  -1   3   33.35    2.26
   8  -1   4   13.88    1.30
   8  -1   4   12.73    1.12
   8  -1   4   15.16    1.25
   8  -1   4   10.71    1.89
   8  -1   4   13.59    1.23
   8  -1   5    0.29    0.53
   8  -1   5    0.47    0.35
   8  -1   5    0.50    0.44
   8  -1   5    0.95    0.51
   8  -1   6    7.98    1.03
   8  -1   6    9.48    1.03
   8  -1   7   27.48    2.14
   8  -1   7   33.67    2.17
   8  -1   8    5.23    0.64
   8  -1   8    5.92    0.64
   8  -1   9    5.64    0.47
   8   0  -3   12.56    1.02
   8   0  -2   37.75    3.61
   8   0  -1   38.45    3.77
   8   0   0   23.85    1.71
   8   0   0   18.94    1.51
   8   0   0   23.30    2.88
   8   0   0   17.42    3.26
   8   0   1    5.37    0.81
   8   0   1    4.87    0.82
   8   0   1    3.08    0.58
   8   0   1    3.01    1.22
   8   0   1    2.48    1.44
   8   0   2   39.11    2.65
   8   0   2   41.62    4.19
   8   0   2   36.38    4.80
   8   0   2   44.85    2.78
   8   0   2   33.21    2.47
   8   0   3    0.12    0.41
   8   0   3    0.70    0.49
   8   0   3    0.46    0.76
   8   0   3    1.46    1.01
   8   0   3    0.13    0.60
   8   0   3    0.63    0.59
   8   0   4    2.08    0.64
   8   0   4    3.60    0.64
   8   0   4    3.49    0.65
   8   0   4    3.76    1.23
   8   0   4    4.03    0.72
   8   0   4    3.13    0.66
   8   0   5    0.41    0.46
   8   0   5    0.10    0.35
   8   0   5   -0.14    0.57
   8   0   6  137.87    7.71
   8   0   6  142.25    7.70
   8   0   7   49.35    3.02
   8   0   7   42.36    3.05
   8   0   8   12.65    1.03
   8   0   8   12.10    1.06
   8   0   8    9.75    1.02
   8   0   9   27.77    1.69
   8   1  -2    4.23    0.58
   8   1  -1   17.58    1.39
   8   1   0    9.56    0.96
   8   1   0    8.10    0.85
   8   1   1   57.56    3.62
   8   1   1   51.02    5.83
   8   1   2   37.42    2.68
   8   1   2   43.35    2.82
   8   1   2   35.24    2.56
   8   1   2   37.90    3.97
   8   1   2   34.64    4.52
   8   1   3   38.27    2.54
   8   1   3   35.72    3.73
   8   1   3   37.52    3.83
   8   1   3   26.22    3.95
   8   1   3   32.50    2.38
   8   1   4   -0.11    0.40
   8   1   4    0.06    0.45
   8   1   4   -0.87    0.87
   8   1   4    0.44    0.75
   8   1   4    0.13    0.49
   8   1   5   13.11    1.28
   8   1   5   13.06    1.25
   8   1   5   14.57    1.31
   8   1   5   13.57    1.25
   8   1   5   11.29    1.24
   8   1   6   59.87    3.62
   8   1   6   59.91    5.35
   8   1   6   52.39    3.46
   8   1   6   51.81    3.60
   8   1   7    0.43    0.47
   8   1   7    0.06    0.43
   8   1   7    1.02    0.99
   8   1   8    0.46    0.41
   8   1   8    0.05    0.43
   8   1   9   50.61    2.48
   8   1   9   32.25    2.16
   8   2  -3   12.76    0.99
   8   2  -2    3.48    0.49
   8   2  -2    3.54    0.54
   8   2  -1    1.92    0.44
   8   2  -1    2.35    0.52
   8   2   0    0.10    0.32
   8   2   0    0.51    0.44
   8   2   0    0.70    0.39
   8   2   1    6.64    0.88
   8   2   1    8.15    2.05
   8   2   1    6.72    0.81
   8   2   1    6.14    0.79
   8   2   2  101.53    5.90
   8   2   2   92.97    5.79
   8   2   2  102.47    7.54
   8   2   2   92.98    8.21
   8   2   2   97.16    5.84
   8   2   3  133.07    8.59
   8   2   3  146.63    8.71
   8   2   3  150.35   10.25
   8   2   3  132.14   10.66
   8   2   4    2.68    0.67
   8   2   4    0.97    0.48
   8   2   4    1.49    0.57
   8   2   4    1.69    1.01
   8   2   4    2.93    1.05
   8   2   4    1.69    0.54
   8   2   5    9.04    0.98
   8   2   5    8.49    1.03
   8   2   5    8.91    1.00
   8   2   5    9.45    1.64
   8   2   5   10.60    1.17
   8   2   5   10.82    1.05
   8   2   6    0.81    0.50
   8   2   6    0.47    0.45
   8   2   6    0.32    0.34
   8   2   6    1.01    0.53
   8   2   6    1.19    0.44
   8   2   7    1.37    0.52
   8   2   7    1.69    0.47
   8   2   7    1.91    1.06
   8   2   7    1.40    0.56
   8   2   8    0.40    0.41
   8   2   8    0.99    0.50
   8   2   9    4.99    0.69
   8   2  10   10.34    0.81
   8   3  -2   27.79    1.79
   8   3  -2   24.07    1.68
   8   3  -1    1.16    0.45
   8   3  -1    0.84    0.35
   8   3  -1    0.21    0.29
   8   3   0   62.22    3.82
   8   3   0   62.36    3.88
   8   3   0   58.49    3.81
   8   3   1    0.23    0.38
   8   3   1    0.06    0.44
   8   3   1    0.29    0.38
   8   3   2    3.04    0.62
   8   3   2    2.57    0.61
   8   3   2    2.95    0.59
   8   3   3    4.70    0.82
   8   3   3    4.12    0.69
   8   3   3    5.18    0.81
   8   3   3    4.23    0.73
   8   3   3    4.19    1.28
   8   3   4   32.34    2.27
   8   3   4   27.37    2.16
   8   3   4   31.44    2.23
   8   3   4   28.44    3.09
   8   3   5    3.28    0.62
   8   3   5    2.86    0.56
   8   3   5    2.57    0.58
   8   3   6   16.55    1.33
   8   3   6   17.80    1.47
   8   3   6   14.43    1.31
   8   3   6   19.64    1.60
   8   3   6   13.81    1.27
   8   3   7    0.40    0.39
   8   3   7   -0.10    0.38
   8   3   7   -0.28    0.82
   8   3   7    0.20    0.46
   8   3   8    1.08    0.53
   8   3   8    1.91    0.49
   8   3   9   21.60    1.77
   8   3   9   26.29    1.72
   8   3  10    4.33    0.49
   8   4  -2   11.02    0.88
   8   4  -1  247.90   14.37
   8   4  -1  281.57   14.46
   8   4  -1  248.75   14.39
   8   4   0  158.14    8.97
   8   4   0  165.43    9.02
   8   4   0  152.10    8.95
   8   4   0  153.12    8.75
   8   4   1  149.73    8.74
   8   4   1  149.47    8.61
   8   4   1  161.35    8.79
   8   4   1  144.54    8.72
   8   4   2    5.53    0.78
   8   4   2    5.95    0.79
   8   4   2    5.12    0.80
   8   4   3    2.48    0.54
   8   4   3    2.99    0.62
   8   4   3    0.96    0.73
   8   4   3    2.94    0.61
   8   4   4   88.78    5.47
   8   4   4   91.72    5.43
   8   4   4   94.00    5.45
   8   4   4   84.56    5.47
   8   4   5  103.76    5.97
   8   4   5   96.78    5.82
   8   4   5   96.68    5.82
   8   4   6   13.04    1.28
   8   4   6   10.04    0.93
   8   4   7   57.44    3.81
   8   4   7   58.87    3.59
   8   4   7   58.79    3.67
   8   4   8  237.60   13.50
   8   4   8  218.66   13.27
   8   4   8  261.23   13.35
   8   4   9   54.77    3.79
   8   4   9   67.80    3.73
   8   4  10  121.06    6.81
   8   5  -1    0.21    0.19
   8   5   0   27.67    1.73
   8   5   0   30.49    1.95
   8   5   1   10.82    0.87
   8   5   1   10.43    0.79
   8   5   1    9.79    0.97
   8   5   1    9.25    0.93
   8   5   2   19.01    1.59
   8   5   2   18.65    1.54
   8   5   2   21.64    1.48
   8   5   2   22.02    1.63
   8   5   3   15.73    1.30
   8   5   3   14.31    1.34
   8   5   3   15.44    1.27
   8   5   3   16.66    1.37
   8   5   4  146.72    8.29
   8   5   4  144.42    8.39
   8   5   4  155.52    8.40
   8   5   4  135.35    8.40
   8   5   4  141.06    8.54
   8   5   5  142.60    7.88
   8   5   5  126.61    7.98
   8   5   6    0.05    0.39
   8   5   6    0.39    0.49
   8   5   7    0.86    0.35
   8   5   7    1.11    0.44
   8   5   7    0.60    0.46
   8   5   7    0.90    0.48
   8   5   8   13.32    1.12
   8   5   8   14.94    1.08
   8   5   9   95.90    5.46
   8   6   0    0.94    0.21
   8   6   1    0.05    0.15
   8   6   1    0.03    0.24
   8   6   1   -0.13    0.24
   8   6   2    5.26    0.60
   8   6   2    4.72    0.54
   8   6   2    5.01    0.57
   8   6   2    5.17    0.64
   8   6   3    0.26    0.31
   8   6   3    0.68    0.32
   8   6   3    0.76    0.38
   8   6   3    0.97    0.34
   8   6   3    0.80    0.29
   8   6   4   15.17    1.46
   8   6   4   18.36    1.32
   8   6   4   17.42    1.27
   8   6   4   16.20    1.26
   8   6   4   16.48    1.27
   8   6   5   49.67    2.90
   8   6   5   41.37    3.05
   8   6   5   45.09    2.80
   8   6   6    5.64    0.65
   8   6   6    7.38    0.72
   8   6   6    5.20    0.79
   8   6   7   27.09    1.74
   8   6   7   31.03    1.86
   8   6   7   27.89    1.98
   8   6   8    4.90    0.58
   8   6   9    1.17    0.25
   8   7   2    1.07    0.22
   8   7   2    0.67    0.15
   8   7   3    1.65    0.29
   8   7   4    0.94    0.22
   8   7   4    1.89    0.33
   8   7   4    1.48    0.32
   8   7   5    0.16    0.22
   8   7   5    0.36    0.25
   8   7   6   65.22    3.66
   8   7   6   59.33    3.63
   8   7   7   17.74    1.13
   8   7   7   14.35    1.03
   8   7   8    1.84    0.30
   8   8   5    2.77    0.27
   9  -2   0   48.70    3.03
   9  -2   0   50.65    3.01
   9  -2   1    0.88    0.33
   9  -2   1    0.92    0.32
   9  -2   2  114.27    6.13
   9  -2   2   98.12    6.06
   9  -2   3    3.11    0.47
   9  -2   3    3.46    0.49
   9  -2   4    2.96    0.41
   9  -2   5    0.22    0.22
   9  -2   6    2.00    0.26
   9  -1  -1   11.52    0.93
   9  -1   0    0.83    0.34
   9  -1   0    1.53    0.34
   9  -1   1   40.69    2.69
   9  -1   1   38.84    2.58
   9  -1   1   43.56    2.64
   9  -1   1   45.73    2.70
   9  -1   2    8.04    0.76
   9  -1   2    8.06    0.83
   9  -1   2    7.81    0.78
   9  -1   2    7.68    0.81
   9  -1   3    0.62    0.36
   9  -1   4    1.29    0.36
   9  -1   4    0.62    0.29
   9  -1   4    1.36    0.40
   9  -1   5    0.85    0.32
   9  -1   5    0.98    0.34
   9  -1   6    3.39    0.44
   9  -1   7    9.43    0.69
   9   0  -1    0.97    0.32
   9   0   0    6.59    0.66
   9   0   0    7.30    0.73
   9   0   1    0.85    0.34
   9   0   1    0.74    0.38
   9   0   1    0.33    0.34
   9   0   2   45.56    2.88
   9   0   2   45.91    2.91
   9   0   3    2.37    0.46
   9   0   3    1.39    0.43
   9   0   3    2.44    0.51
   9   0   3    1.42    0.43
   9   0   4    6.13    0.73
   9   0   5   28.92    2.12
   9   0   5   43.16    2.32
   9   0   6    3.61    0.49
   9   0   7    7.44    0.66
   9   1  -1   25.37    1.70
   9   1   0    0.66    0.31
   9   1   0    0.27    0.33
   9   1   1    4.45    0.60
   9   1   1    6.13    0.70
   9   1   2    3.08    0.53
   9   1   2    2.95    0.55
   9   1   2    4.37    0.66
   9   1   3    2.44    0.48
   9   1   3    1.61    0.44
   9   1   3    2.39    0.52
   9   1   3    2.32    0.55
   9   1   4    6.49    0.76
   9   1   5    8.49    0.83
   9   1   6    1.51    0.35
   9   1   7   12.23    0.94
   9   1   8    1.97    0.29
   9   2  -1    1.84    0.25
   9   2  -1    4.14    0.46
   9   2   0    7.48    0.72
   9   2   0    8.37    0.78
   9   2   0    6.48    0.64
   9   2   1    0.12    0.30
   9   2   1   -0.07    0.26
   9   2   2    0.51    0.34
   9   2   2    0.32    0.30
   9   2   3   38.86    2.56
   9   2   3   37.73    2.52
   9   2   4    5.43    0.66
   9   2   4    4.75    0.63
   9   2   4    3.38    0.62
   9   2   5    9.27    0.89
   9   2   5   10.02    0.90
   9   2   5   10.36    0.98
   9   2   5    8.03    0.87
   9   2   6    0.34    0.24
   9   2   6    0.11    0.32
   9   2   7    3.89    0.45
   9   2   8    0.91    0.23
   9   3   0    4.23    0.40
   9   3   0    6.31    0.61
   9   3   1    1.54    0.35
   9   3   1    1.73    0.42
   9   3   1    1.80    0.36
   9   3   2    2.75    0.47
   9   3   2    2.76    0.52
   9   3   2    1.56    0.40
   9   3   3   27.48    1.82
   9   3   3   24.67    1.80
   9   3   3   26.04    1.79
   9   3   3   23.85    1.74
   9   3   4    9.55    0.91
   9   3   4    8.30    0.82
   9   3   4    9.02    0.89
   9   3   4    6.48    0.78
   9   3   5   21.51    1.58
   9   3   5   20.78    1.58
   9   3   6    1.71    0.44
   9   3   6    1.88    0.43
   9   3   7    0.25    0.25
   9   4   1    0.05    0.13
   9   4   1   -0.04    0.17
   9   4   2    0.38    0.26
   9   4   2    0.13    0.24
   9   4   3   25.70    1.73
   9   4   3   23.83    1.72
   9   4   3   28.44    1.76
   9   4   4   22.23    1.57
   9   4   5   49.96    3.03
   9   4   5   47.40    3.08
   9   4   6    0.93    0.37
   9   4   7    3.39    0.45
   9   5   1   32.87    1.94
   9   5   2    0.07    0.16
   9   5   3    0.77    0.22
   9   5   3    0.64    0.25
   9   5   3    0.70    0.25
   9   5   4   21.57    1.39
   9   5   4   21.56    1.40
   9   5   4   19.37    1.33
   9   5   5    1.74    0.35
   9   5   6    0.11    0.24
   9   5   6    0.02    0.20
   9   5   7   15.65    1.09
   9   6   3    5.13    0.37
   9   6   3    3.70    0.33
   9   6   4    0.17    0.15
   9   6   4    0.20    0.12
   9   6   5    4.62    0.40
   9   6   6    5.60    0.48
   9   6   6    7.89    0.54
  10   0   3    0.05    0.14
  10   1   2    0.04    0.16
  10   1   4    0.75    0.20
  10   2   2    0.18    0.13
  10   2   3    0.25    0.18
  10   3   4    3.35    0.32
   0   0   0    0.00    0.00



TITL MCE--34DHBA-100K_manual in P1
REM P1 (#1 in standard setting)
CELL 1.54184   7.959270   8.966259  10.520354  69.9827  76.2830  83.7903
ZERR    3.00   0.000264   0.000296   0.000360   0.0031   0.0029   0.0027
LATT -1
SFAC C H N O
UNIT 33.00 30.00 3.00 3.00
REM  CrysAlisPro recorded range (K): Min=99.9; max=100.1; aver:100.0
TEMP -173
SIZE 0.07 0.14 0.28
TREF
HKLF 4
END
_computing_structure_solution     'SHELXT 2018/2 (Sheldrick, 2018)'
_computing_structure_solution     'SHELXT 2018/2 (Sheldrick, 2018)'
;
_shelx_hkl_checksum                89250
_olex2_submission_special_instructions  'No special instructions were received'
_oxdiff_exptl_absorpt_empirical_details
;
Empirical correction (ABSPACK) includes:
- Absorption correction using spherical harmonics
- Frame scaling
- Detector area scaling
;
_oxdiff_exptl_absorpt_empirical_full_max  2.677
_oxdiff_exptl_absorpt_empirical_full_min  0.428
